# RIV package for MODFLOW-2005 generated by Flopy 3.4.1
         3         0
         3         0 # stress period 1
         7         1        15            62.0           100.0            58.0
         7         1        16            62.0           100.0            58.0
         7         1        17            62.0           100.0            58.0
