# WEL package for MODFLOW-2005 generated by Flopy 3.4.1
         7         0 
         7         0 # stress period 1
        10         1         9         -5000.0
        11         1         9         -5000.0
        12         1         9         -5000.0
        13         1         9         -5000.0
        14         1         9         -5000.0
        15         1         9         -5000.0
        16         1         9         -5000.0
