# DIS package for MODFLOW-2005 generated by Flopy 3.4.1
        19         1        33         1         4         2
  0  0  0  0  0  0  0  0  0  0  0  0  0  0  0  0  0  0  0
CONSTANT    1.000000E+01                           #delr                          
CONSTANT    1.000000E+01                           #delc                          
INTERNAL               1  (33E15.6) -1 #model_top                     
   9.500000E+01   9.500000E+01   9.500000E+01   9.500000E+01   9.500000E+01   9.500000E+01   9.500000E+01   9.500000E+01   9.500000E+01   9.500000E+01   9.500000E+01   9.500000E+01   9.500000E+01   9.500000E+01   9.500000E+01   9.500000E+01   9.500000E+01   9.500000E+01   9.500000E+01   9.500000E+01   9.500000E+01   9.500000E+01   9.500000E+01   9.500000E+01   9.500000E+01   9.500000E+01   9.500000E+01   9.500000E+01   9.500000E+01   9.500000E+01   9.500000E+01   9.500000E+01   9.500000E+01
INTERNAL               1  (33E15.6) -1 #botm layer 1                  
   9.000000E+01   9.000000E+01   9.000000E+01   9.000000E+01   9.000000E+01   9.000000E+01   9.000000E+01   9.000000E+01   9.000000E+01   9.000000E+01   9.000000E+01   9.000000E+01   9.000000E+01   9.000000E+01   9.000000E+01   9.000000E+01   9.000000E+01   9.000000E+01   9.000000E+01   9.000000E+01   9.000000E+01   9.000000E+01   9.000000E+01   9.000000E+01   9.000000E+01   9.000000E+01   9.000000E+01   9.000000E+01   9.000000E+01   9.000000E+01   9.000000E+01   9.000000E+01   9.000000E+01
INTERNAL               1  (33E15.6) -1 #botm layer 2                  
   8.500000E+01   8.500000E+01   8.500000E+01   8.500000E+01   8.500000E+01   8.500000E+01   8.500000E+01   8.500000E+01   8.500000E+01   8.500000E+01   8.500000E+01   8.500000E+01   8.500000E+01   8.500000E+01   8.500000E+01   8.500000E+01   8.500000E+01   8.500000E+01   8.500000E+01   8.500000E+01   8.500000E+01   8.500000E+01   8.500000E+01   8.500000E+01   8.500000E+01   8.500000E+01   8.500000E+01   8.500000E+01   8.500000E+01   8.500000E+01   8.500000E+01   8.500000E+01   8.500000E+01
INTERNAL               1  (33E15.6) -1 #botm layer 3                  
   8.000000E+01   8.000000E+01   8.000000E+01   8.000000E+01   8.000000E+01   8.000000E+01   8.000000E+01   8.000000E+01   8.000000E+01   8.000000E+01   8.000000E+01   8.000000E+01   8.000000E+01   8.000000E+01   8.000000E+01   8.000000E+01   8.000000E+01   8.000000E+01   8.000000E+01   8.000000E+01   8.000000E+01   8.000000E+01   8.000000E+01   8.000000E+01   8.000000E+01   8.000000E+01   8.000000E+01   8.000000E+01   8.000000E+01   8.000000E+01   8.000000E+01   8.000000E+01   8.000000E+01
INTERNAL               1  (33E15.6) -1 #botm layer 4                  
   7.500000E+01   7.500000E+01   7.500000E+01   7.500000E+01   7.500000E+01   7.500000E+01   7.500000E+01   7.500000E+01   7.500000E+01   7.500000E+01   7.500000E+01   7.500000E+01   7.500000E+01   7.500000E+01   7.500000E+01   7.500000E+01   7.500000E+01   7.500000E+01   7.500000E+01   7.500000E+01   7.500000E+01   7.500000E+01   7.500000E+01   7.500000E+01   7.500000E+01   7.500000E+01   7.500000E+01   7.500000E+01   7.500000E+01   7.500000E+01   7.500000E+01   7.500000E+01   7.500000E+01
INTERNAL               1  (33E15.6) -1 #botm layer 5                  
   7.000000E+01   7.000000E+01   7.000000E+01   7.000000E+01   7.000000E+01   7.000000E+01   7.000000E+01   7.000000E+01   7.000000E+01   7.000000E+01   7.000000E+01   7.000000E+01   7.000000E+01   7.000000E+01   7.000000E+01   7.000000E+01   7.000000E+01   7.000000E+01   7.000000E+01   7.000000E+01   7.000000E+01   7.000000E+01   7.000000E+01   7.000000E+01   7.000000E+01   7.000000E+01   7.000000E+01   7.000000E+01   7.000000E+01   7.000000E+01   7.000000E+01   7.000000E+01   7.000000E+01
INTERNAL               1  (33E15.6) -1 #botm layer 6                  
   6.500000E+01   6.500000E+01   6.500000E+01   6.500000E+01   6.500000E+01   6.500000E+01   6.500000E+01   6.500000E+01   6.500000E+01   6.500000E+01   6.500000E+01   6.500000E+01   6.500000E+01   6.500000E+01   6.500000E+01   6.500000E+01   6.500000E+01   6.500000E+01   6.500000E+01   6.500000E+01   6.500000E+01   6.500000E+01   6.500000E+01   6.500000E+01   6.500000E+01   6.500000E+01   6.500000E+01   6.500000E+01   6.500000E+01   6.500000E+01   6.500000E+01   6.500000E+01   6.500000E+01
INTERNAL               1  (33E15.6) -1 #botm layer 7                  
   6.000000E+01   6.000000E+01   6.000000E+01   6.000000E+01   6.000000E+01   6.000000E+01   6.000000E+01   6.000000E+01   6.000000E+01   6.000000E+01   6.000000E+01   6.000000E+01   6.000000E+01   6.000000E+01   6.000000E+01   6.000000E+01   6.000000E+01   6.000000E+01   6.000000E+01   6.000000E+01   6.000000E+01   6.000000E+01   6.000000E+01   6.000000E+01   6.000000E+01   6.000000E+01   6.000000E+01   6.000000E+01   6.000000E+01   6.000000E+01   6.000000E+01   6.000000E+01   6.000000E+01
INTERNAL               1  (33E15.6) -1 #botm layer 8                  
   5.500000E+01   5.500000E+01   5.500000E+01   5.500000E+01   5.500000E+01   5.500000E+01   5.500000E+01   5.500000E+01   5.500000E+01   5.500000E+01   5.500000E+01   5.500000E+01   5.500000E+01   5.500000E+01   5.500000E+01   5.500000E+01   5.500000E+01   5.500000E+01   5.500000E+01   5.500000E+01   5.500000E+01   5.500000E+01   5.500000E+01   5.500000E+01   5.500000E+01   5.500000E+01   5.500000E+01   5.500000E+01   5.500000E+01   5.500000E+01   5.500000E+01   5.500000E+01   5.500000E+01
INTERNAL               1  (33E15.6) -1 #botm layer 9                  
   5.000000E+01   5.000000E+01   5.000000E+01   5.000000E+01   5.000000E+01   5.000000E+01   5.000000E+01   5.000000E+01   5.000000E+01   5.000000E+01   5.000000E+01   5.000000E+01   5.000000E+01   5.000000E+01   5.000000E+01   5.000000E+01   5.000000E+01   5.000000E+01   5.000000E+01   5.000000E+01   5.000000E+01   5.000000E+01   5.000000E+01   5.000000E+01   5.000000E+01   5.000000E+01   5.000000E+01   5.000000E+01   5.000000E+01   5.000000E+01   5.000000E+01   5.000000E+01   5.000000E+01
INTERNAL               1  (33E15.6) -1 #botm layer 10                 
   4.500000E+01   4.500000E+01   4.500000E+01   4.500000E+01   4.500000E+01   4.500000E+01   4.500000E+01   4.500000E+01   4.500000E+01   4.500000E+01   4.500000E+01   4.500000E+01   4.500000E+01   4.500000E+01   4.500000E+01   4.500000E+01   4.500000E+01   4.500000E+01   4.500000E+01   4.500000E+01   4.500000E+01   4.500000E+01   4.500000E+01   4.500000E+01   4.500000E+01   4.500000E+01   4.500000E+01   4.500000E+01   4.500000E+01   4.500000E+01   4.500000E+01   4.500000E+01   4.500000E+01
INTERNAL               1  (33E15.6) -1 #botm layer 11                 
   4.000000E+01   4.000000E+01   4.000000E+01   4.000000E+01   4.000000E+01   4.000000E+01   4.000000E+01   4.000000E+01   4.000000E+01   4.000000E+01   4.000000E+01   4.000000E+01   4.000000E+01   4.000000E+01   4.000000E+01   4.000000E+01   4.000000E+01   4.000000E+01   4.000000E+01   4.000000E+01   4.000000E+01   4.000000E+01   4.000000E+01   4.000000E+01   4.000000E+01   4.000000E+01   4.000000E+01   4.000000E+01   4.000000E+01   4.000000E+01   4.000000E+01   4.000000E+01   4.000000E+01
INTERNAL               1  (33E15.6) -1 #botm layer 12                 
   3.500000E+01   3.500000E+01   3.500000E+01   3.500000E+01   3.500000E+01   3.500000E+01   3.500000E+01   3.500000E+01   3.500000E+01   3.500000E+01   3.500000E+01   3.500000E+01   3.500000E+01   3.500000E+01   3.500000E+01   3.500000E+01   3.500000E+01   3.500000E+01   3.500000E+01   3.500000E+01   3.500000E+01   3.500000E+01   3.500000E+01   3.500000E+01   3.500000E+01   3.500000E+01   3.500000E+01   3.500000E+01   3.500000E+01   3.500000E+01   3.500000E+01   3.500000E+01   3.500000E+01
INTERNAL               1  (33E15.6) -1 #botm layer 13                 
   3.000000E+01   3.000000E+01   3.000000E+01   3.000000E+01   3.000000E+01   3.000000E+01   3.000000E+01   3.000000E+01   3.000000E+01   3.000000E+01   3.000000E+01   3.000000E+01   3.000000E+01   3.000000E+01   3.000000E+01   3.000000E+01   3.000000E+01   3.000000E+01   3.000000E+01   3.000000E+01   3.000000E+01   3.000000E+01   3.000000E+01   3.000000E+01   3.000000E+01   3.000000E+01   3.000000E+01   3.000000E+01   3.000000E+01   3.000000E+01   3.000000E+01   3.000000E+01   3.000000E+01
INTERNAL               1  (33E15.6) -1 #botm layer 14                 
   2.500000E+01   2.500000E+01   2.500000E+01   2.500000E+01   2.500000E+01   2.500000E+01   2.500000E+01   2.500000E+01   2.500000E+01   2.500000E+01   2.500000E+01   2.500000E+01   2.500000E+01   2.500000E+01   2.500000E+01   2.500000E+01   2.500000E+01   2.500000E+01   2.500000E+01   2.500000E+01   2.500000E+01   2.500000E+01   2.500000E+01   2.500000E+01   2.500000E+01   2.500000E+01   2.500000E+01   2.500000E+01   2.500000E+01   2.500000E+01   2.500000E+01   2.500000E+01   2.500000E+01
INTERNAL               1  (33E15.6) -1 #botm layer 15                 
   2.000000E+01   2.000000E+01   2.000000E+01   2.000000E+01   2.000000E+01   2.000000E+01   2.000000E+01   2.000000E+01   2.000000E+01   2.000000E+01   2.000000E+01   2.000000E+01   2.000000E+01   2.000000E+01   2.000000E+01   2.000000E+01   2.000000E+01   2.000000E+01   2.000000E+01   2.000000E+01   2.000000E+01   2.000000E+01   2.000000E+01   2.000000E+01   2.000000E+01   2.000000E+01   2.000000E+01   2.000000E+01   2.000000E+01   2.000000E+01   2.000000E+01   2.000000E+01   2.000000E+01
INTERNAL               1  (33E15.6) -1 #botm layer 16                 
   1.500000E+01   1.500000E+01   1.500000E+01   1.500000E+01   1.500000E+01   1.500000E+01   1.500000E+01   1.500000E+01   1.500000E+01   1.500000E+01   1.500000E+01   1.500000E+01   1.500000E+01   1.500000E+01   1.500000E+01   1.500000E+01   1.500000E+01   1.500000E+01   1.500000E+01   1.500000E+01   1.500000E+01   1.500000E+01   1.500000E+01   1.500000E+01   1.500000E+01   1.500000E+01   1.500000E+01   1.500000E+01   1.500000E+01   1.500000E+01   1.500000E+01   1.500000E+01   1.500000E+01
INTERNAL               1  (33E15.6) -1 #botm layer 17                 
   1.000000E+01   1.000000E+01   1.000000E+01   1.000000E+01   1.000000E+01   1.000000E+01   1.000000E+01   1.000000E+01   1.000000E+01   1.000000E+01   1.000000E+01   1.000000E+01   1.000000E+01   1.000000E+01   1.000000E+01   1.000000E+01   1.000000E+01   1.000000E+01   1.000000E+01   1.000000E+01   1.000000E+01   1.000000E+01   1.000000E+01   1.000000E+01   1.000000E+01   1.000000E+01   1.000000E+01   1.000000E+01   1.000000E+01   1.000000E+01   1.000000E+01   1.000000E+01   1.000000E+01
INTERNAL               1  (33E15.6) -1 #botm layer 18                 
   5.000000E+00   5.000000E+00   5.000000E+00   5.000000E+00   5.000000E+00   5.000000E+00   5.000000E+00   5.000000E+00   5.000000E+00   5.000000E+00   5.000000E+00   5.000000E+00   5.000000E+00   5.000000E+00   5.000000E+00   5.000000E+00   5.000000E+00   5.000000E+00   5.000000E+00   5.000000E+00   5.000000E+00   5.000000E+00   5.000000E+00   5.000000E+00   5.000000E+00   5.000000E+00   5.000000E+00   5.000000E+00   5.000000E+00   5.000000E+00   5.000000E+00   5.000000E+00   5.000000E+00
INTERNAL               1  (33E15.6) -1 #botm layer 19                 
   0.000000E+00   0.000000E+00   0.000000E+00   0.000000E+00   0.000000E+00   0.000000E+00   0.000000E+00   0.000000E+00   0.000000E+00   0.000000E+00   0.000000E+00   0.000000E+00   0.000000E+00   0.000000E+00   0.000000E+00   0.000000E+00   0.000000E+00   0.000000E+00   0.000000E+00   0.000000E+00   0.000000E+00   0.000000E+00   0.000000E+00   0.000000E+00   0.000000E+00   0.000000E+00   0.000000E+00   0.000000E+00   0.000000E+00   0.000000E+00   0.000000E+00   0.000000E+00   0.000000E+00
      1.000000             1  1.000000  SS
