# LPF package for MODFLOW-2005 generated by Flopy 3.4.1
        53    -1E+30         0  
         1         1         1         1         1         1         1         1         1         1         1         1         1         1         1         1         1         1         1
         0         0         0         0         0         0         0         0         0         0         0         0         0         0         0         0         0         0         0
   1.000000E+00   1.000000E+00   1.000000E+00   1.000000E+00   1.000000E+00   1.000000E+00   1.000000E+00   1.000000E+00   1.000000E+00   1.000000E+00   1.000000E+00   1.000000E+00   1.000000E+00   1.000000E+00   1.000000E+00   1.000000E+00   1.000000E+00   1.000000E+00   1.000000E+00
         0         0         0         0         0         0         0         0         0         0         0         0         0         0         0         0         0         0         0
         1         1         1         1         1         1         1         1         1         1         1         1         1         1         1         1         1         1         1
  0.100000         1         0
INTERNAL               1  (33E15.6) -1 #hk layer 1                    
   1.000000E+03   1.000000E+03   1.000000E+03   1.000000E+03   1.000000E+03   1.000000E+03   1.000000E+03   1.000000E+03   1.000000E+03   1.000000E+03   1.000000E+03   1.000000E+03   1.000000E+03   1.000000E+03   1.000000E+03   2.000000E+03   2.000000E+03   2.000000E+03   2.000000E+03   2.000000E+03   2.000000E+03   2.000000E+03   5.000000E+02   5.000000E+02   5.000000E+02   5.000000E+02   5.000000E+02   5.000000E+02   5.000000E+02   5.000000E+02   5.000000E+02   5.000000E+02   5.000000E+02
INTERNAL               1  (33E15.6) -1 #vka1                          
   1.000000E+02   1.000000E+02   1.000000E+02   1.000000E+02   1.000000E+02   1.000000E+02   1.000000E+02   1.000000E+02   1.000000E+02   1.000000E+02   1.000000E+02   1.000000E+02   1.000000E+02   1.000000E+02   1.000000E+02   2.000000E+02   2.000000E+02   2.000000E+02   2.000000E+02   2.000000E+02   2.000000E+02   2.000000E+02   5.000000E+01   5.000000E+01   5.000000E+01   5.000000E+01   5.000000E+01   5.000000E+01   5.000000E+01   5.000000E+01   5.000000E+01   5.000000E+01   5.000000E+01
CONSTANT    1.000000E+00                           #wetdry layer 1                
INTERNAL               1  (33E15.6) -1 #hk layer 2                    
   1.000000E+03   1.000000E+03   1.000000E+03   1.000000E+03   1.000000E+03   1.000000E+03   1.000000E+03   1.000000E+03   1.000000E+03   1.000000E+03   1.000000E+03   1.000000E+03   1.000000E+03   1.000000E+03   1.000000E+03   2.000000E+03   2.000000E+03   2.000000E+03   2.000000E+03   2.000000E+03   2.000000E+03   2.000000E+03   5.000000E+02   5.000000E+02   5.000000E+02   5.000000E+02   5.000000E+02   5.000000E+02   5.000000E+02   5.000000E+02   5.000000E+02   5.000000E+02   5.000000E+02
INTERNAL               1  (33E15.6) -1 #vka2                          
   1.000000E+02   1.000000E+02   1.000000E+02   1.000000E+02   1.000000E+02   1.000000E+02   1.000000E+02   1.000000E+02   1.000000E+02   1.000000E+02   1.000000E+02   1.000000E+02   1.000000E+02   1.000000E+02   1.000000E+02   2.000000E+02   2.000000E+02   2.000000E+02   2.000000E+02   2.000000E+02   2.000000E+02   2.000000E+02   5.000000E+01   5.000000E+01   5.000000E+01   5.000000E+01   5.000000E+01   5.000000E+01   5.000000E+01   5.000000E+01   5.000000E+01   5.000000E+01   5.000000E+01
CONSTANT    1.000000E+00                           #wetdry layer 2                
INTERNAL               1  (33E15.6) -1 #hk layer 3                    
   1.000000E+03   1.000000E+03   1.000000E+03   1.000000E+03   1.000000E+03   1.000000E+03   1.000000E+03   1.000000E+03   1.000000E+03   1.000000E+03   1.000000E+03   1.000000E+03   1.000000E+03   1.000000E+03   2.000000E+03   2.000000E+03   2.000000E+03   2.000000E+03   2.000000E+03   2.000000E+03   2.000000E+03   5.000000E+02   5.000000E+02   5.000000E+02   5.000000E+02   5.000000E+02   5.000000E+02   5.000000E+02   5.000000E+02   5.000000E+02   5.000000E+02   5.000000E+02   5.000000E+02
INTERNAL               1  (33E15.6) -1 #vka3                          
   1.000000E+02   1.000000E+02   1.000000E+02   1.000000E+02   1.000000E+02   1.000000E+02   1.000000E+02   1.000000E+02   1.000000E+02   1.000000E+02   1.000000E+02   1.000000E+02   1.000000E+02   1.000000E+02   2.000000E+02   2.000000E+02   2.000000E+02   2.000000E+02   2.000000E+02   2.000000E+02   2.000000E+02   5.000000E+01   5.000000E+01   5.000000E+01   5.000000E+01   5.000000E+01   5.000000E+01   5.000000E+01   5.000000E+01   5.000000E+01   5.000000E+01   5.000000E+01   5.000000E+01
CONSTANT    1.000000E+00                           #wetdry layer 3                
INTERNAL               1  (33E15.6) -1 #hk layer 4                    
   1.000000E+03   1.000000E+03   1.000000E+03   1.000000E+03   1.000000E+03   1.000000E+03   1.000000E+03   1.000000E+03   1.000000E+03   1.000000E+03   1.000000E+03   1.000000E+03   2.000000E+03   2.000000E+03   2.000000E+03   2.000000E+03   2.000000E+03   2.000000E+03   2.000000E+03   5.000000E+02   5.000000E+02   5.000000E+02   5.000000E+02   5.000000E+02   5.000000E+02   5.000000E+02   5.000000E+02   5.000000E+02   5.000000E+02   5.000000E+02   5.000000E+02   5.000000E+02   5.000000E+02
INTERNAL               1  (33E15.6) -1 #vka4                          
   1.000000E+02   1.000000E+02   1.000000E+02   1.000000E+02   1.000000E+02   1.000000E+02   1.000000E+02   1.000000E+02   1.000000E+02   1.000000E+02   1.000000E+02   1.000000E+02   2.000000E+02   2.000000E+02   2.000000E+02   2.000000E+02   2.000000E+02   2.000000E+02   2.000000E+02   5.000000E+01   5.000000E+01   5.000000E+01   5.000000E+01   5.000000E+01   5.000000E+01   5.000000E+01   5.000000E+01   5.000000E+01   5.000000E+01   5.000000E+01   5.000000E+01   5.000000E+01   5.000000E+01
CONSTANT    1.000000E+00                           #wetdry layer 4                
INTERNAL               1  (33E15.6) -1 #hk layer 5                    
   1.000000E+03   1.000000E+03   1.000000E+03   1.000000E+03   1.000000E+03   1.000000E+03   1.000000E+03   1.000000E+03   1.000000E+03   1.000000E+03   1.000000E+03   1.000000E+03   2.000000E+03   2.000000E+03   2.000000E+03   2.000000E+03   2.000000E+03   2.000000E+03   2.000000E+03   5.000000E+02   5.000000E+02   5.000000E+02   5.000000E+02   5.000000E+02   5.000000E+02   5.000000E+02   5.000000E+02   5.000000E+02   5.000000E+02   5.000000E+02   5.000000E+02   5.000000E+02   5.000000E+02
INTERNAL               1  (33E15.6) -1 #vka5                          
   1.000000E+02   1.000000E+02   1.000000E+02   1.000000E+02   1.000000E+02   1.000000E+02   1.000000E+02   1.000000E+02   1.000000E+02   1.000000E+02   1.000000E+02   1.000000E+02   2.000000E+02   2.000000E+02   2.000000E+02   2.000000E+02   2.000000E+02   2.000000E+02   2.000000E+02   5.000000E+01   5.000000E+01   5.000000E+01   5.000000E+01   5.000000E+01   5.000000E+01   5.000000E+01   5.000000E+01   5.000000E+01   5.000000E+01   5.000000E+01   5.000000E+01   5.000000E+01   5.000000E+01
CONSTANT    1.000000E+00                           #wetdry layer 5                
INTERNAL               1  (33E15.6) -1 #hk layer 6                    
   1.000000E+03   1.000000E+03   1.000000E+03   1.000000E+03   1.000000E+03   1.000000E+03   1.000000E+03   1.000000E+03   1.000000E+03   1.000000E+03   1.000000E+03   2.000000E+03   2.000000E+03   2.000000E+03   2.000000E+03   2.000000E+03   2.000000E+03   2.000000E+03   2.000000E+03   5.000000E+02   5.000000E+02   5.000000E+02   5.000000E+02   5.000000E+02   5.000000E+02   5.000000E+02   5.000000E+02   5.000000E+02   5.000000E+02   5.000000E+02   5.000000E+02   5.000000E+02   5.000000E+02
INTERNAL               1  (33E15.6) -1 #vka6                          
   1.000000E+02   1.000000E+02   1.000000E+02   1.000000E+02   1.000000E+02   1.000000E+02   1.000000E+02   1.000000E+02   1.000000E+02   1.000000E+02   1.000000E+02   2.000000E+02   2.000000E+02   2.000000E+02   2.000000E+02   2.000000E+02   2.000000E+02   2.000000E+02   2.000000E+02   5.000000E+01   5.000000E+01   5.000000E+01   5.000000E+01   5.000000E+01   5.000000E+01   5.000000E+01   5.000000E+01   5.000000E+01   5.000000E+01   5.000000E+01   5.000000E+01   5.000000E+01   5.000000E+01
CONSTANT    1.000000E+00                           #wetdry layer 6                
INTERNAL               1  (33E15.6) -1 #hk layer 7                    
   1.000000E+03   1.000000E+03   1.000000E+03   1.000000E+03   1.000000E+03   1.000000E+03   1.000000E+03   1.000000E+03   1.000000E+03   1.000000E+03   2.000000E+03   2.000000E+03   2.000000E+03   2.000000E+03   2.000000E+03   2.000000E+03   2.000000E+03   2.000000E+03   2.000000E+03   5.000000E+02   5.000000E+02   5.000000E+02   5.000000E+02   5.000000E+02   5.000000E+02   5.000000E+02   5.000000E+02   5.000000E+02   5.000000E+02   5.000000E+02   5.000000E+02   5.000000E+02   5.000000E+02
INTERNAL               1  (33E15.6) -1 #vka7                          
   1.000000E+02   1.000000E+02   1.000000E+02   1.000000E+02   1.000000E+02   1.000000E+02   1.000000E+02   1.000000E+02   1.000000E+02   1.000000E+02   2.000000E+02   2.000000E+02   2.000000E+02   2.000000E+02   2.000000E+02   2.000000E+02   2.000000E+02   2.000000E+02   2.000000E+02   5.000000E+01   5.000000E+01   5.000000E+01   5.000000E+01   5.000000E+01   5.000000E+01   5.000000E+01   5.000000E+01   5.000000E+01   5.000000E+01   5.000000E+01   5.000000E+01   5.000000E+01   5.000000E+01
CONSTANT    1.000000E+00                           #wetdry layer 7                
INTERNAL               1  (33E15.6) -1 #hk layer 8                    
   1.000000E+03   1.000000E+03   1.000000E+03   1.000000E+03   1.000000E+03   1.000000E+03   1.000000E+03   1.000000E+03   2.000000E+03   2.000000E+03   2.000000E+03   2.000000E+03   2.000000E+03   2.000000E+03   2.000000E+03   2.000000E+03   2.000000E+03   2.000000E+03   2.000000E+03   5.000000E+02   5.000000E+02   5.000000E+02   5.000000E+02   5.000000E+02   5.000000E+02   5.000000E+02   5.000000E+02   5.000000E+02   5.000000E+02   5.000000E+02   5.000000E+02   5.000000E+02   5.000000E+02
INTERNAL               1  (33E15.6) -1 #vka8                          
   1.000000E+02   1.000000E+02   1.000000E+02   1.000000E+02   1.000000E+02   1.000000E+02   1.000000E+02   1.000000E+02   2.000000E+02   2.000000E+02   2.000000E+02   2.000000E+02   2.000000E+02   2.000000E+02   2.000000E+02   2.000000E+02   2.000000E+02   2.000000E+02   2.000000E+02   5.000000E+01   5.000000E+01   5.000000E+01   5.000000E+01   5.000000E+01   5.000000E+01   5.000000E+01   5.000000E+01   5.000000E+01   5.000000E+01   5.000000E+01   5.000000E+01   5.000000E+01   5.000000E+01
CONSTANT    1.000000E+00                           #wetdry layer 8                
INTERNAL               1  (33E15.6) -1 #hk layer 9                    
   1.000000E+03   1.000000E+03   1.000000E+03   1.000000E+03   1.000000E+03   1.000000E+03   1.000000E+03   1.000000E+03   2.000000E+03   2.000000E+03   2.000000E+03   2.000000E+03   2.000000E+03   2.000000E+03   2.000000E+03   2.000000E+03   2.000000E+03   2.000000E+03   2.000000E+03   5.000000E+02   5.000000E+02   5.000000E+02   5.000000E+02   5.000000E+02   5.000000E+02   5.000000E+02   5.000000E+02   5.000000E+02   5.000000E+02   5.000000E+02   5.000000E+02   5.000000E+02   5.000000E+02
INTERNAL               1  (33E15.6) -1 #vka9                          
   1.000000E+02   1.000000E+02   1.000000E+02   1.000000E+02   1.000000E+02   1.000000E+02   1.000000E+02   1.000000E+02   2.000000E+02   2.000000E+02   2.000000E+02   2.000000E+02   2.000000E+02   2.000000E+02   2.000000E+02   2.000000E+02   2.000000E+02   2.000000E+02   2.000000E+02   5.000000E+01   5.000000E+01   5.000000E+01   5.000000E+01   5.000000E+01   5.000000E+01   5.000000E+01   5.000000E+01   5.000000E+01   5.000000E+01   5.000000E+01   5.000000E+01   5.000000E+01   5.000000E+01
CONSTANT    1.000000E+00                           #wetdry layer 9                
INTERNAL               1  (33E15.6) -1 #hk layer 10                   
   1.000000E+03   1.000000E+03   1.000000E+03   1.000000E+03   1.000000E+03   1.000000E+03   1.000000E+03   1.000000E+03   2.000000E+03   2.000000E+03   2.000000E+03   2.000000E+03   2.000000E+03   2.000000E+03   2.000000E+03   2.000000E+03   2.000000E+03   2.000000E+03   2.000000E+03   5.000000E+02   5.000000E+02   5.000000E+02   5.000000E+02   5.000000E+02   5.000000E+02   5.000000E+02   5.000000E+02   5.000000E+02   5.000000E+02   5.000000E+02   5.000000E+02   5.000000E+02   5.000000E+02
INTERNAL               1  (33E15.6) -1 #vka10                         
   1.000000E+02   1.000000E+02   1.000000E+02   1.000000E+02   1.000000E+02   1.000000E+02   1.000000E+02   1.000000E+02   2.000000E+02   2.000000E+02   2.000000E+02   2.000000E+02   2.000000E+02   2.000000E+02   2.000000E+02   2.000000E+02   2.000000E+02   2.000000E+02   2.000000E+02   5.000000E+01   5.000000E+01   5.000000E+01   5.000000E+01   5.000000E+01   5.000000E+01   5.000000E+01   5.000000E+01   5.000000E+01   5.000000E+01   5.000000E+01   5.000000E+01   5.000000E+01   5.000000E+01
CONSTANT    1.000000E+00                           #wetdry layer 10               
INTERNAL               1  (33E15.6) -1 #hk layer 11                   
   1.000000E+03   1.000000E+03   1.000000E+03   1.000000E+03   1.000000E+03   1.000000E+03   1.000000E+03   1.000000E+03   2.000000E+03   2.000000E+03   2.000000E+03   2.000000E+03   2.000000E+03   2.000000E+03   2.000000E+03   2.000000E+03   2.000000E+03   2.000000E+03   2.000000E+03   5.000000E+02   5.000000E+02   5.000000E+02   5.000000E+02   5.000000E+02   5.000000E+02   5.000000E+02   5.000000E+02   5.000000E+02   5.000000E+02   5.000000E+02   5.000000E+02   5.000000E+02   5.000000E+02
INTERNAL               1  (33E15.6) -1 #vka11                         
   1.000000E+02   1.000000E+02   1.000000E+02   1.000000E+02   1.000000E+02   1.000000E+02   1.000000E+02   1.000000E+02   2.000000E+02   2.000000E+02   2.000000E+02   2.000000E+02   2.000000E+02   2.000000E+02   2.000000E+02   2.000000E+02   2.000000E+02   2.000000E+02   2.000000E+02   5.000000E+01   5.000000E+01   5.000000E+01   5.000000E+01   5.000000E+01   5.000000E+01   5.000000E+01   5.000000E+01   5.000000E+01   5.000000E+01   5.000000E+01   5.000000E+01   5.000000E+01   5.000000E+01
CONSTANT    1.000000E+00                           #wetdry layer 11               
INTERNAL               1  (33E15.6) -1 #hk layer 12                   
   1.000000E+03   1.000000E+03   1.000000E+03   1.000000E+03   1.000000E+03   1.000000E+03   1.000000E+03   1.000000E+03   2.000000E+03   2.000000E+03   2.000000E+03   2.000000E+03   2.000000E+03   2.000000E+03   2.000000E+03   2.000000E+03   2.000000E+03   2.000000E+03   2.000000E+03   5.000000E+02   5.000000E+02   5.000000E+02   5.000000E+02   5.000000E+02   5.000000E+02   5.000000E+02   5.000000E+02   5.000000E+02   5.000000E+02   5.000000E+02   5.000000E+02   5.000000E+02   5.000000E+02
INTERNAL               1  (33E15.6) -1 #vka12                         
   1.000000E+02   1.000000E+02   1.000000E+02   1.000000E+02   1.000000E+02   1.000000E+02   1.000000E+02   1.000000E+02   2.000000E+02   2.000000E+02   2.000000E+02   2.000000E+02   2.000000E+02   2.000000E+02   2.000000E+02   2.000000E+02   2.000000E+02   2.000000E+02   2.000000E+02   5.000000E+01   5.000000E+01   5.000000E+01   5.000000E+01   5.000000E+01   5.000000E+01   5.000000E+01   5.000000E+01   5.000000E+01   5.000000E+01   5.000000E+01   5.000000E+01   5.000000E+01   5.000000E+01
CONSTANT    1.000000E+00                           #wetdry layer 12               
INTERNAL               1  (33E15.6) -1 #hk layer 13                   
   1.000000E+03   1.000000E+03   1.000000E+03   1.000000E+03   1.000000E+03   1.000000E+03   2.000000E+03   2.000000E+03   2.000000E+03   2.000000E+03   2.000000E+03   2.000000E+03   2.000000E+03   2.000000E+03   2.000000E+03   2.000000E+03   2.000000E+03   2.000000E+03   2.000000E+03   5.000000E+02   5.000000E+02   5.000000E+02   5.000000E+02   5.000000E+02   5.000000E+02   5.000000E+02   5.000000E+02   5.000000E+02   5.000000E+02   5.000000E+02   5.000000E+02   5.000000E+02   5.000000E+02
INTERNAL               1  (33E15.6) -1 #vka13                         
   1.000000E+02   1.000000E+02   1.000000E+02   1.000000E+02   1.000000E+02   1.000000E+02   2.000000E+02   2.000000E+02   2.000000E+02   2.000000E+02   2.000000E+02   2.000000E+02   2.000000E+02   2.000000E+02   2.000000E+02   2.000000E+02   2.000000E+02   2.000000E+02   2.000000E+02   5.000000E+01   5.000000E+01   5.000000E+01   5.000000E+01   5.000000E+01   5.000000E+01   5.000000E+01   5.000000E+01   5.000000E+01   5.000000E+01   5.000000E+01   5.000000E+01   5.000000E+01   5.000000E+01
CONSTANT    1.000000E+00                           #wetdry layer 13               
INTERNAL               1  (33E15.6) -1 #hk layer 14                   
   1.000000E+03   1.000000E+03   1.000000E+03   1.000000E+03   1.000000E+03   1.000000E+03   2.000000E+03   2.000000E+03   2.000000E+03   2.000000E+03   2.000000E+03   2.000000E+03   2.000000E+03   2.000000E+03   2.000000E+03   2.000000E+03   2.000000E+03   2.000000E+03   2.000000E+03   5.000000E+02   5.000000E+02   5.000000E+02   5.000000E+02   5.000000E+02   5.000000E+02   5.000000E+02   5.000000E+02   5.000000E+02   5.000000E+02   5.000000E+02   5.000000E+02   5.000000E+02   5.000000E+02
INTERNAL               1  (33E15.6) -1 #vka14                         
   1.000000E+02   1.000000E+02   1.000000E+02   1.000000E+02   1.000000E+02   1.000000E+02   2.000000E+02   2.000000E+02   2.000000E+02   2.000000E+02   2.000000E+02   2.000000E+02   2.000000E+02   2.000000E+02   2.000000E+02   2.000000E+02   2.000000E+02   2.000000E+02   2.000000E+02   5.000000E+01   5.000000E+01   5.000000E+01   5.000000E+01   5.000000E+01   5.000000E+01   5.000000E+01   5.000000E+01   5.000000E+01   5.000000E+01   5.000000E+01   5.000000E+01   5.000000E+01   5.000000E+01
CONSTANT    1.000000E+00                           #wetdry layer 14               
INTERNAL               1  (33E15.6) -1 #hk layer 15                   
   1.000000E+03   1.000000E+03   1.000000E+03   1.000000E+03   1.000000E+03   2.000000E+03   2.000000E+03   2.000000E+03   2.000000E+03   2.000000E+03   2.000000E+03   2.000000E+03   2.000000E+03   2.000000E+03   2.000000E+03   2.000000E+03   2.000000E+03   2.000000E+03   2.000000E+03   5.000000E+02   5.000000E+02   5.000000E+02   5.000000E+02   5.000000E+02   5.000000E+02   5.000000E+02   5.000000E+02   5.000000E+02   5.000000E+02   5.000000E+02   5.000000E+02   5.000000E+02   5.000000E+02
INTERNAL               1  (33E15.6) -1 #vka15                         
   1.000000E+02   1.000000E+02   1.000000E+02   1.000000E+02   1.000000E+02   2.000000E+02   2.000000E+02   2.000000E+02   2.000000E+02   2.000000E+02   2.000000E+02   2.000000E+02   2.000000E+02   2.000000E+02   2.000000E+02   2.000000E+02   2.000000E+02   2.000000E+02   2.000000E+02   5.000000E+01   5.000000E+01   5.000000E+01   5.000000E+01   5.000000E+01   5.000000E+01   5.000000E+01   5.000000E+01   5.000000E+01   5.000000E+01   5.000000E+01   5.000000E+01   5.000000E+01   5.000000E+01
CONSTANT    1.000000E+00                           #wetdry layer 15               
INTERNAL               1  (33E15.6) -1 #hk layer 16                   
   1.000000E+03   1.000000E+03   1.000000E+03   1.000000E+03   1.000000E+03   2.000000E+03   2.000000E+03   2.000000E+03   2.000000E+03   2.000000E+03   2.000000E+03   2.000000E+03   2.000000E+03   2.000000E+03   2.000000E+03   2.000000E+03   2.000000E+03   2.000000E+03   2.000000E+03   5.000000E+02   5.000000E+02   5.000000E+02   5.000000E+02   5.000000E+02   5.000000E+02   5.000000E+02   5.000000E+02   5.000000E+02   5.000000E+02   5.000000E+02   5.000000E+02   5.000000E+02   5.000000E+02
INTERNAL               1  (33E15.6) -1 #vka16                         
   0.000000E+00   0.000000E+00   0.000000E+00   0.000000E+00   0.000000E+00   0.000000E+00   0.000000E+00   0.000000E+00   2.000000E+02   2.000000E+02   2.000000E+02   2.000000E+02   2.000000E+02   2.000000E+02   2.000000E+02   2.000000E+02   2.000000E+02   2.000000E+02   2.000000E+02   5.000000E+01   5.000000E+01   5.000000E+01   5.000000E+01   5.000000E+01   5.000000E+01   5.000000E+01   5.000000E+01   5.000000E+01   5.000000E+01   5.000000E+01   5.000000E+01   5.000000E+01   5.000000E+01
CONSTANT    1.000000E+00                           #wetdry layer 16               
INTERNAL               1  (33E15.6) -1 #hk layer 17                   
   1.000000E+03   1.000000E+03   1.000000E+03   1.000000E+03   2.000000E+03   2.000000E+03   2.000000E+03   0.000000E+00   2.000000E+03   2.000000E+03   2.000000E+03   2.000000E+03   2.000000E+03   2.000000E+03   2.000000E+03   2.000000E+03   2.000000E+03   2.000000E+03   2.000000E+03   5.000000E+02   5.000000E+02   5.000000E+02   5.000000E+02   5.000000E+02   5.000000E+02   5.000000E+02   5.000000E+02   5.000000E+02   5.000000E+02   5.000000E+02   5.000000E+02   5.000000E+02   5.000000E+02
INTERNAL               1  (33E15.6) -1 #vka17                         
   1.000000E+02   1.000000E+02   1.000000E+02   1.000000E+02   2.000000E+02   2.000000E+02   2.000000E+02   2.000000E+02   0.000000E+00   0.000000E+00   0.000000E+00   0.000000E+00   0.000000E+00   0.000000E+00   0.000000E+00   0.000000E+00   2.000000E+02   2.000000E+02   2.000000E+02   5.000000E+01   5.000000E+01   5.000000E+01   5.000000E+01   5.000000E+01   5.000000E+01   5.000000E+01   5.000000E+01   5.000000E+01   5.000000E+01   5.000000E+01   5.000000E+01   5.000000E+01   5.000000E+01
CONSTANT    1.000000E+00                           #wetdry layer 17               
INTERNAL               1  (33E15.6) -1 #hk layer 18                   
   1.000000E+03   1.000000E+03   1.000000E+03   1.000000E+03   2.000000E+03   2.000000E+03   2.000000E+03   2.000000E+03   2.000000E+03   2.000000E+03   2.000000E+03   2.000000E+03   2.000000E+03   2.000000E+03   2.000000E+03   0.000000E+00   2.000000E+03   2.000000E+03   2.000000E+03   5.000000E+02   5.000000E+02   5.000000E+02   5.000000E+02   5.000000E+02   5.000000E+02   5.000000E+02   5.000000E+02   5.000000E+02   5.000000E+02   5.000000E+02   5.000000E+02   5.000000E+02   5.000000E+02
INTERNAL               1  (33E15.6) -1 #vka18                         
   1.000000E+02   1.000000E+02   1.000000E+02   1.000000E+02   2.000000E+02   2.000000E+02   2.000000E+02   2.000000E+02   2.000000E+02   2.000000E+02   2.000000E+02   2.000000E+02   2.000000E+02   2.000000E+02   2.000000E+02   2.000000E+02   0.000000E+00   0.000000E+00   0.000000E+00   0.000000E+00   0.000000E+00   0.000000E+00   0.000000E+00   0.000000E+00   5.000000E+01   5.000000E+01   5.000000E+01   5.000000E+01   5.000000E+01   5.000000E+01   5.000000E+01   5.000000E+01   5.000000E+01
CONSTANT    1.000000E+00                           #wetdry layer 18               
INTERNAL               1  (33E15.6) -1 #hk layer 19                   
   1.000000E+03   1.000000E+03   1.000000E+03   1.000000E+03   2.000000E+03   2.000000E+03   2.000000E+03   2.000000E+03   2.000000E+03   2.000000E+03   2.000000E+03   2.000000E+03   2.000000E+03   2.000000E+03   2.000000E+03   2.000000E+03   2.000000E+03   2.000000E+03   2.000000E+03   5.000000E+02   5.000000E+02   5.000000E+02   5.000000E+02   0.000000E+00   5.000000E+02   5.000000E+02   5.000000E+02   5.000000E+02   5.000000E+02   5.000000E+02   5.000000E+02   5.000000E+02   5.000000E+02
INTERNAL               1  (33E15.6) -1 #vka19                         
   1.000000E+02   1.000000E+02   1.000000E+02   1.000000E+02   2.000000E+02   2.000000E+02   2.000000E+02   2.000000E+02   2.000000E+02   2.000000E+02   2.000000E+02   2.000000E+02   2.000000E+02   2.000000E+02   2.000000E+02   2.000000E+02   2.000000E+02   2.000000E+02   2.000000E+02   5.000000E+01   5.000000E+01   5.000000E+01   5.000000E+01   5.000000E+01   5.000000E+01   5.000000E+01   5.000000E+01   5.000000E+01   5.000000E+01   5.000000E+01   5.000000E+01   5.000000E+01   5.000000E+01
CONSTANT    1.000000E+00                           #wetdry layer 19               
