# BAS6 package for MODFLOW-2005 generated by Flopy 3.4.1
FREE
INTERNAL               1    (33I10) -1 #ibound layer 1                
         1         0         0         0         0         0         0         0         0         0         0         0         0         0         0         0         0         0         0         0         0         0         0         0         0         0         0         0         0         0         0         0         1
INTERNAL               1    (33I10) -1 #ibound layer 2                
         1         1         1         1         1         1         1         1         0         0         0         0         0         0         0         0         0         0         0         0         0         0         0         1         1         1         1         1         1         1         1         1         1
INTERNAL               1    (33I10) -1 #ibound layer 3                
         1         1         1         1         1         1         1         1         1         1         0         0         0         0         0         0         0         0         0         0         0         1         1         1         1         1         1         1         1         1         1         1         1
INTERNAL               1    (33I10) -1 #ibound layer 4                
         1         1         1         1         1         1         1         1         1         1         1         1         1         1         0         0         0         1         1         1         1         1         1         1         1         1         1         1         1         1         1         1         1
INTERNAL               1    (33I10) -1 #ibound layer 5                
        -1         1         1         1         1         1         1         1         1         1         1         1         1         1         0         0         0         1         1         1         1         1         1         1         1         1         1         1         1         1         1         1        -1
INTERNAL               1    (33I10) -1 #ibound layer 6                
        -1         1         1         1         1         1         1         1         1         1         1         1         1         1         0         0         0         1         1         1         1         1         1         1         1         1         1         1         1         1         1         1        -1
INTERNAL               1    (33I10) -1 #ibound layer 7                
        -1         1         1         1         1         1         1         1         1         1         1         1         1         1         1         1         1         1         1         1         1         1         1         1         1         1         1         1         1         1         1         1        -1
INTERNAL               1    (33I10) -1 #ibound layer 8                
        -1         1         1         1         1         1         1         1         1         1         1         1         1         1         1         1         1         1         1         1         1         1         1         1         1         1         1         1         1         1         1         1        -1
INTERNAL               1    (33I10) -1 #ibound layer 9                
        -1         1         1         1         1         1         1         1         1         1         1         1         1         1         1         1         1         1         1         1         1         1         1         1         1         1         1         1         1         1         1         1        -1
INTERNAL               1    (33I10) -1 #ibound layer 10               
        -1         1         1         1         1         1         1         1         1         1         1         1         1         1         1         1         1         1         1         1         1         1         1         1         1         1         1         1         1         1         1         1        -1
INTERNAL               1    (33I10) -1 #ibound layer 11               
        -1         1         1         1         1         1         1         1         1         1         1         1         1         1         1         1         1         1         1         1         1         1         1         1         1         1         1         1         1         1         1         1        -1
INTERNAL               1    (33I10) -1 #ibound layer 12               
        -1         1         1         1         1         1         1         1         1         1         1         1         1         1         1         1         1         1         1         1         1         1         1         1         1         1         1         1         1         1         1         1        -1
INTERNAL               1    (33I10) -1 #ibound layer 13               
        -1         1         1         1         1         1         1         1         1         1         1         1         1         1         1         1         1         1         1         1         1         1         1         1         1         1         1         1         1         1         1         1        -1
INTERNAL               1    (33I10) -1 #ibound layer 14               
        -1         1         1         1         1         1         1         1         1         1         1         1         1         1         1         1         1         1         1         1         1         1         1         1         1         1         1         1         1         1         1         1        -1
INTERNAL               1    (33I10) -1 #ibound layer 15               
        -1         1         1         1         1         1         1         1         1         1         1         1         1         1         1         1         1         1         1         1         1         1         1         1         1         1         1         1         1         1         1         1        -1
INTERNAL               1    (33I10) -1 #ibound layer 16               
        -1         1         1         1         1         1         1         1         1         1         1         1         1         1         1         1         1         1         1         1         1         1         1         1         1         1         1         1         1         1         1         1        -1
INTERNAL               1    (33I10) -1 #ibound layer 17               
         0         0         0         0         0         0         0         0         1         1         1         1         1         1         1         1         1         1         1         1         1         1         1         1         1         1         1         1         1         1         1         1        -1
INTERNAL               1    (33I10) -1 #ibound layer 18               
         0         0         0         0         0         0         0         0         0         0         0         0         0         0         0         0         1         1         1         1         1         1         1         1         1         1         1         1         1         1         1         1        -1
INTERNAL               1    (33I10) -1 #ibound layer 19               
         0         0         0         0         0         0         0         0         0         0         0         0         0         0         0         0         0         0         0         0         0         0         0         0         1         1         1         1         1         1         1         1        -1
     -99.0
CONSTANT    7.200000E+01                           #strt layer 1                  
CONSTANT    7.200000E+01                           #strt layer 2                  
CONSTANT    7.200000E+01                           #strt layer 3                  
CONSTANT    7.200000E+01                           #strt layer 4                  
CONSTANT    7.200000E+01                           #strt layer 5                  
CONSTANT    7.200000E+01                           #strt layer 6                  
CONSTANT    7.200000E+01                           #strt layer 7                  
CONSTANT    7.200000E+01                           #strt layer 8                  
CONSTANT    7.200000E+01                           #strt layer 9                  
CONSTANT    7.200000E+01                           #strt layer 10                 
CONSTANT    7.200000E+01                           #strt layer 11                 
CONSTANT    7.200000E+01                           #strt layer 12                 
CONSTANT    7.200000E+01                           #strt layer 13                 
CONSTANT    7.200000E+01                           #strt layer 14                 
CONSTANT    7.200000E+01                           #strt layer 15                 
CONSTANT    7.200000E+01                           #strt layer 16                 
CONSTANT    7.200000E+01                           #strt layer 17                 
CONSTANT    7.200000E+01                           #strt layer 18                 
CONSTANT    7.200000E+01                           #strt layer 19                 
