# OC package for MODFLOW-2005 generated by Flopy 3.4.1
HEAD PRINT FORMAT   0
HEAD SAVE UNIT    51
DRAWDOWN PRINT FORMAT   0
DRAWDOWN SAVE UNIT    52
COMPACT BUDGET AUX

period 1 step 1 
  save head
  save drawdown
  save budget
  print head
  print budget

