# PCG package for MODFLOW-2005 generated by Flopy 3.4.1
50000 50 1 0
1e-05 1e-05 0.8 0 0 3 1.0 
