# PCG package for MODFLOW-2005 generated by Flopy 3.4.1
1000 50 1 0
1e-05 1e-05 0.8 0 0 1 1.0 
