# DIS package for MODFLOW-2005 generated by Flopy 3.4.1
        51         1       113         1         4         2
  0  0  0  0  0  0  0  0  0  0  0  0  0  0  0  0  0  0  0  0  0  0  0  0  0  0  0  0  0  0  0  0  0  0  0  0  0  0  0  0  0  0  0  0  0  0  0  0  0  0  0
CONSTANT    5.000000E+00                           #delr                          
CONSTANT    1.000000E+03                           #delc                          
INTERNAL               1 (113E15.6) -1 #model_top                     
   1.020000E+02   1.020000E+02   1.020000E+02   1.020000E+02   1.020000E+02   1.020000E+02   1.020000E+02   1.020000E+02   1.020000E+02   1.020000E+02   1.020000E+02   1.020000E+02   1.020000E+02   1.020000E+02   1.020000E+02   1.020000E+02   1.020000E+02   1.020000E+02   1.020000E+02   1.020000E+02   1.020000E+02   1.020000E+02   1.020000E+02   1.020000E+02   1.020000E+02   1.020000E+02   1.020000E+02   1.020000E+02   1.020000E+02   1.020000E+02   1.020000E+02   1.020000E+02   1.020000E+02   1.020000E+02   1.020000E+02   1.020000E+02   1.020000E+02   1.020000E+02   1.020000E+02   1.020000E+02   1.020000E+02   1.020000E+02   1.020000E+02   1.020000E+02   1.020000E+02   1.020000E+02   1.020000E+02   1.020000E+02   1.020000E+02   1.020000E+02   1.020000E+02   1.020000E+02   1.020000E+02   1.020000E+02   1.020000E+02   1.020000E+02   1.020000E+02   1.020000E+02   1.020000E+02   1.020000E+02   1.020000E+02   1.020000E+02   1.020000E+02   1.020000E+02   1.020000E+02   1.020000E+02   1.020000E+02   1.020000E+02   1.020000E+02   1.020000E+02   1.020000E+02   1.020000E+02   1.020000E+02   1.020000E+02   1.020000E+02   1.020000E+02   1.020000E+02   1.020000E+02   1.020000E+02   1.020000E+02   1.020000E+02   1.020000E+02   1.020000E+02   1.020000E+02   1.020000E+02   1.020000E+02   1.020000E+02   1.020000E+02   1.020000E+02   1.020000E+02   1.020000E+02   1.020000E+02   1.020000E+02   1.020000E+02   1.020000E+02   1.020000E+02   1.020000E+02   1.020000E+02   1.020000E+02   1.020000E+02   1.020000E+02   1.020000E+02   1.020000E+02   1.020000E+02   1.020000E+02   1.020000E+02   1.020000E+02   1.020000E+02   1.020000E+02   1.020000E+02   1.020000E+02   1.020000E+02   1.020000E+02
INTERNAL               1 (113E15.6) -1 #botm layer 1                  
   1.000000E+02   1.000000E+02   1.000000E+02   1.000000E+02   1.000000E+02   1.000000E+02   1.000000E+02   1.000000E+02   1.000000E+02   1.000000E+02   1.000000E+02   1.000000E+02   1.000000E+02   1.000000E+02   1.000000E+02   1.000000E+02   1.000000E+02   1.000000E+02   1.000000E+02   1.000000E+02   1.000000E+02   1.000000E+02   1.000000E+02   1.000000E+02   1.000000E+02   1.000000E+02   1.000000E+02   1.000000E+02   1.000000E+02   1.000000E+02   1.000000E+02   1.000000E+02   1.000000E+02   1.000000E+02   1.000000E+02   1.000000E+02   1.000000E+02   1.000000E+02   1.000000E+02   1.000000E+02   1.000000E+02   1.000000E+02   1.000000E+02   1.000000E+02   1.000000E+02   1.000000E+02   1.000000E+02   1.000000E+02   1.000000E+02   1.000000E+02   1.000000E+02   1.000000E+02   1.000000E+02   1.000000E+02   1.000000E+02   1.000000E+02   1.000000E+02   1.000000E+02   1.000000E+02   1.000000E+02   1.000000E+02   1.000000E+02   1.000000E+02   1.000000E+02   1.000000E+02   1.000000E+02   1.000000E+02   1.000000E+02   1.000000E+02   1.000000E+02   1.000000E+02   1.000000E+02   1.000000E+02   1.000000E+02   1.000000E+02   1.000000E+02   1.000000E+02   1.000000E+02   1.000000E+02   1.000000E+02   1.000000E+02   1.000000E+02   1.000000E+02   1.000000E+02   1.000000E+02   1.000000E+02   1.000000E+02   1.000000E+02   1.000000E+02   1.000000E+02   1.000000E+02   1.000000E+02   1.000000E+02   1.000000E+02   1.000000E+02   1.000000E+02   1.000000E+02   1.000000E+02   1.000000E+02   1.000000E+02   1.000000E+02   1.000000E+02   1.000000E+02   1.000000E+02   1.000000E+02   1.000000E+02   1.000000E+02   1.000000E+02   1.000000E+02   1.000000E+02   1.000000E+02   1.000000E+02   1.000000E+02
INTERNAL               1 (113E15.6) -1 #botm layer 2                  
   9.800000E+01   9.800000E+01   9.800000E+01   9.800000E+01   9.800000E+01   9.800000E+01   9.800000E+01   9.800000E+01   9.800000E+01   9.800000E+01   9.800000E+01   9.800000E+01   9.800000E+01   9.800000E+01   9.800000E+01   9.800000E+01   9.800000E+01   9.800000E+01   9.800000E+01   9.800000E+01   9.800000E+01   9.800000E+01   9.800000E+01   9.800000E+01   9.800000E+01   9.800000E+01   9.800000E+01   9.800000E+01   9.800000E+01   9.800000E+01   9.800000E+01   9.800000E+01   9.800000E+01   9.800000E+01   9.800000E+01   9.800000E+01   9.800000E+01   9.800000E+01   9.800000E+01   9.800000E+01   9.800000E+01   9.800000E+01   9.800000E+01   9.800000E+01   9.800000E+01   9.800000E+01   9.800000E+01   9.800000E+01   9.800000E+01   9.800000E+01   9.800000E+01   9.800000E+01   9.800000E+01   9.800000E+01   9.800000E+01   9.800000E+01   9.800000E+01   9.800000E+01   9.800000E+01   9.800000E+01   9.800000E+01   9.800000E+01   9.800000E+01   9.800000E+01   9.800000E+01   9.800000E+01   9.800000E+01   9.800000E+01   9.800000E+01   9.800000E+01   9.800000E+01   9.800000E+01   9.800000E+01   9.800000E+01   9.800000E+01   9.800000E+01   9.800000E+01   9.800000E+01   9.800000E+01   9.800000E+01   9.800000E+01   9.800000E+01   9.800000E+01   9.800000E+01   9.800000E+01   9.800000E+01   9.800000E+01   9.800000E+01   9.800000E+01   9.800000E+01   9.800000E+01   9.800000E+01   9.800000E+01   9.800000E+01   9.800000E+01   9.800000E+01   9.800000E+01   9.800000E+01   9.800000E+01   9.800000E+01   9.800000E+01   9.800000E+01   9.800000E+01   9.800000E+01   9.800000E+01   9.800000E+01   9.800000E+01   9.800000E+01   9.800000E+01   9.800000E+01   9.800000E+01   9.800000E+01   9.800000E+01
INTERNAL               1 (113E15.6) -1 #botm layer 3                  
   9.600000E+01   9.600000E+01   9.600000E+01   9.600000E+01   9.600000E+01   9.600000E+01   9.600000E+01   9.600000E+01   9.600000E+01   9.600000E+01   9.600000E+01   9.600000E+01   9.600000E+01   9.600000E+01   9.600000E+01   9.600000E+01   9.600000E+01   9.600000E+01   9.600000E+01   9.600000E+01   9.600000E+01   9.600000E+01   9.600000E+01   9.600000E+01   9.600000E+01   9.600000E+01   9.600000E+01   9.600000E+01   9.600000E+01   9.600000E+01   9.600000E+01   9.600000E+01   9.600000E+01   9.600000E+01   9.600000E+01   9.600000E+01   9.600000E+01   9.600000E+01   9.600000E+01   9.600000E+01   9.600000E+01   9.600000E+01   9.600000E+01   9.600000E+01   9.600000E+01   9.600000E+01   9.600000E+01   9.600000E+01   9.600000E+01   9.600000E+01   9.600000E+01   9.600000E+01   9.600000E+01   9.600000E+01   9.600000E+01   9.600000E+01   9.600000E+01   9.600000E+01   9.600000E+01   9.600000E+01   9.600000E+01   9.600000E+01   9.600000E+01   9.600000E+01   9.600000E+01   9.600000E+01   9.600000E+01   9.600000E+01   9.600000E+01   9.600000E+01   9.600000E+01   9.600000E+01   9.600000E+01   9.600000E+01   9.600000E+01   9.600000E+01   9.600000E+01   9.600000E+01   9.600000E+01   9.600000E+01   9.600000E+01   9.600000E+01   9.600000E+01   9.600000E+01   9.600000E+01   9.600000E+01   9.600000E+01   9.600000E+01   9.600000E+01   9.600000E+01   9.600000E+01   9.600000E+01   9.600000E+01   9.600000E+01   9.600000E+01   9.600000E+01   9.600000E+01   9.600000E+01   9.600000E+01   9.600000E+01   9.600000E+01   9.600000E+01   9.600000E+01   9.600000E+01   9.600000E+01   9.600000E+01   9.600000E+01   9.600000E+01   9.600000E+01   9.600000E+01   9.600000E+01   9.600000E+01   9.600000E+01
INTERNAL               1 (113E15.6) -1 #botm layer 4                  
   9.400000E+01   9.400000E+01   9.400000E+01   9.400000E+01   9.400000E+01   9.400000E+01   9.400000E+01   9.400000E+01   9.400000E+01   9.400000E+01   9.400000E+01   9.400000E+01   9.400000E+01   9.400000E+01   9.400000E+01   9.400000E+01   9.400000E+01   9.400000E+01   9.400000E+01   9.400000E+01   9.400000E+01   9.400000E+01   9.400000E+01   9.400000E+01   9.400000E+01   9.400000E+01   9.400000E+01   9.400000E+01   9.400000E+01   9.400000E+01   9.400000E+01   9.400000E+01   9.400000E+01   9.400000E+01   9.400000E+01   9.400000E+01   9.400000E+01   9.400000E+01   9.400000E+01   9.400000E+01   9.400000E+01   9.400000E+01   9.400000E+01   9.400000E+01   9.400000E+01   9.400000E+01   9.400000E+01   9.400000E+01   9.400000E+01   9.400000E+01   9.400000E+01   9.400000E+01   9.400000E+01   9.400000E+01   9.400000E+01   9.400000E+01   9.400000E+01   9.400000E+01   9.400000E+01   9.400000E+01   9.400000E+01   9.400000E+01   9.400000E+01   9.400000E+01   9.400000E+01   9.400000E+01   9.400000E+01   9.400000E+01   9.400000E+01   9.400000E+01   9.400000E+01   9.400000E+01   9.400000E+01   9.400000E+01   9.400000E+01   9.400000E+01   9.400000E+01   9.400000E+01   9.400000E+01   9.400000E+01   9.400000E+01   9.400000E+01   9.400000E+01   9.400000E+01   9.400000E+01   9.400000E+01   9.400000E+01   9.400000E+01   9.400000E+01   9.400000E+01   9.400000E+01   9.400000E+01   9.400000E+01   9.400000E+01   9.400000E+01   9.400000E+01   9.400000E+01   9.400000E+01   9.400000E+01   9.400000E+01   9.400000E+01   9.400000E+01   9.400000E+01   9.400000E+01   9.400000E+01   9.400000E+01   9.400000E+01   9.400000E+01   9.400000E+01   9.400000E+01   9.400000E+01   9.400000E+01   9.400000E+01
INTERNAL               1 (113E15.6) -1 #botm layer 5                  
   9.200000E+01   9.200000E+01   9.200000E+01   9.200000E+01   9.200000E+01   9.200000E+01   9.200000E+01   9.200000E+01   9.200000E+01   9.200000E+01   9.200000E+01   9.200000E+01   9.200000E+01   9.200000E+01   9.200000E+01   9.200000E+01   9.200000E+01   9.200000E+01   9.200000E+01   9.200000E+01   9.200000E+01   9.200000E+01   9.200000E+01   9.200000E+01   9.200000E+01   9.200000E+01   9.200000E+01   9.200000E+01   9.200000E+01   9.200000E+01   9.200000E+01   9.200000E+01   9.200000E+01   9.200000E+01   9.200000E+01   9.200000E+01   9.200000E+01   9.200000E+01   9.200000E+01   9.200000E+01   9.200000E+01   9.200000E+01   9.200000E+01   9.200000E+01   9.200000E+01   9.200000E+01   9.200000E+01   9.200000E+01   9.200000E+01   9.200000E+01   9.200000E+01   9.200000E+01   9.200000E+01   9.200000E+01   9.200000E+01   9.200000E+01   9.200000E+01   9.200000E+01   9.200000E+01   9.200000E+01   9.200000E+01   9.200000E+01   9.200000E+01   9.200000E+01   9.200000E+01   9.200000E+01   9.200000E+01   9.200000E+01   9.200000E+01   9.200000E+01   9.200000E+01   9.200000E+01   9.200000E+01   9.200000E+01   9.200000E+01   9.200000E+01   9.200000E+01   9.200000E+01   9.200000E+01   9.200000E+01   9.200000E+01   9.200000E+01   9.200000E+01   9.200000E+01   9.200000E+01   9.200000E+01   9.200000E+01   9.200000E+01   9.200000E+01   9.200000E+01   9.200000E+01   9.200000E+01   9.200000E+01   9.200000E+01   9.200000E+01   9.200000E+01   9.200000E+01   9.200000E+01   9.200000E+01   9.200000E+01   9.200000E+01   9.200000E+01   9.200000E+01   9.200000E+01   9.200000E+01   9.200000E+01   9.200000E+01   9.200000E+01   9.200000E+01   9.200000E+01   9.200000E+01   9.200000E+01   9.200000E+01
INTERNAL               1 (113E15.6) -1 #botm layer 6                  
   9.000000E+01   9.000000E+01   9.000000E+01   9.000000E+01   9.000000E+01   9.000000E+01   9.000000E+01   9.000000E+01   9.000000E+01   9.000000E+01   9.000000E+01   9.000000E+01   9.000000E+01   9.000000E+01   9.000000E+01   9.000000E+01   9.000000E+01   9.000000E+01   9.000000E+01   9.000000E+01   9.000000E+01   9.000000E+01   9.000000E+01   9.000000E+01   9.000000E+01   9.000000E+01   9.000000E+01   9.000000E+01   9.000000E+01   9.000000E+01   9.000000E+01   9.000000E+01   9.000000E+01   9.000000E+01   9.000000E+01   9.000000E+01   9.000000E+01   9.000000E+01   9.000000E+01   9.000000E+01   9.000000E+01   9.000000E+01   9.000000E+01   9.000000E+01   9.000000E+01   9.000000E+01   9.000000E+01   9.000000E+01   9.000000E+01   9.000000E+01   9.000000E+01   9.000000E+01   9.000000E+01   9.000000E+01   9.000000E+01   9.000000E+01   9.000000E+01   9.000000E+01   9.000000E+01   9.000000E+01   9.000000E+01   9.000000E+01   9.000000E+01   9.000000E+01   9.000000E+01   9.000000E+01   9.000000E+01   9.000000E+01   9.000000E+01   9.000000E+01   9.000000E+01   9.000000E+01   9.000000E+01   9.000000E+01   9.000000E+01   9.000000E+01   9.000000E+01   9.000000E+01   9.000000E+01   9.000000E+01   9.000000E+01   9.000000E+01   9.000000E+01   9.000000E+01   9.000000E+01   9.000000E+01   9.000000E+01   9.000000E+01   9.000000E+01   9.000000E+01   9.000000E+01   9.000000E+01   9.000000E+01   9.000000E+01   9.000000E+01   9.000000E+01   9.000000E+01   9.000000E+01   9.000000E+01   9.000000E+01   9.000000E+01   9.000000E+01   9.000000E+01   9.000000E+01   9.000000E+01   9.000000E+01   9.000000E+01   9.000000E+01   9.000000E+01   9.000000E+01   9.000000E+01   9.000000E+01   9.000000E+01
INTERNAL               1 (113E15.6) -1 #botm layer 7                  
   8.800000E+01   8.800000E+01   8.800000E+01   8.800000E+01   8.800000E+01   8.800000E+01   8.800000E+01   8.800000E+01   8.800000E+01   8.800000E+01   8.800000E+01   8.800000E+01   8.800000E+01   8.800000E+01   8.800000E+01   8.800000E+01   8.800000E+01   8.800000E+01   8.800000E+01   8.800000E+01   8.800000E+01   8.800000E+01   8.800000E+01   8.800000E+01   8.800000E+01   8.800000E+01   8.800000E+01   8.800000E+01   8.800000E+01   8.800000E+01   8.800000E+01   8.800000E+01   8.800000E+01   8.800000E+01   8.800000E+01   8.800000E+01   8.800000E+01   8.800000E+01   8.800000E+01   8.800000E+01   8.800000E+01   8.800000E+01   8.800000E+01   8.800000E+01   8.800000E+01   8.800000E+01   8.800000E+01   8.800000E+01   8.800000E+01   8.800000E+01   8.800000E+01   8.800000E+01   8.800000E+01   8.800000E+01   8.800000E+01   8.800000E+01   8.800000E+01   8.800000E+01   8.800000E+01   8.800000E+01   8.800000E+01   8.800000E+01   8.800000E+01   8.800000E+01   8.800000E+01   8.800000E+01   8.800000E+01   8.800000E+01   8.800000E+01   8.800000E+01   8.800000E+01   8.800000E+01   8.800000E+01   8.800000E+01   8.800000E+01   8.800000E+01   8.800000E+01   8.800000E+01   8.800000E+01   8.800000E+01   8.800000E+01   8.800000E+01   8.800000E+01   8.800000E+01   8.800000E+01   8.800000E+01   8.800000E+01   8.800000E+01   8.800000E+01   8.800000E+01   8.800000E+01   8.800000E+01   8.800000E+01   8.800000E+01   8.800000E+01   8.800000E+01   8.800000E+01   8.800000E+01   8.800000E+01   8.800000E+01   8.800000E+01   8.800000E+01   8.800000E+01   8.800000E+01   8.800000E+01   8.800000E+01   8.800000E+01   8.800000E+01   8.800000E+01   8.800000E+01   8.800000E+01   8.800000E+01   8.800000E+01
INTERNAL               1 (113E15.6) -1 #botm layer 8                  
   8.600000E+01   8.600000E+01   8.600000E+01   8.600000E+01   8.600000E+01   8.600000E+01   8.600000E+01   8.600000E+01   8.600000E+01   8.600000E+01   8.600000E+01   8.600000E+01   8.600000E+01   8.600000E+01   8.600000E+01   8.600000E+01   8.600000E+01   8.600000E+01   8.600000E+01   8.600000E+01   8.600000E+01   8.600000E+01   8.600000E+01   8.600000E+01   8.600000E+01   8.600000E+01   8.600000E+01   8.600000E+01   8.600000E+01   8.600000E+01   8.600000E+01   8.600000E+01   8.600000E+01   8.600000E+01   8.600000E+01   8.600000E+01   8.600000E+01   8.600000E+01   8.600000E+01   8.600000E+01   8.600000E+01   8.600000E+01   8.600000E+01   8.600000E+01   8.600000E+01   8.600000E+01   8.600000E+01   8.600000E+01   8.600000E+01   8.600000E+01   8.600000E+01   8.600000E+01   8.600000E+01   8.600000E+01   8.600000E+01   8.600000E+01   8.600000E+01   8.600000E+01   8.600000E+01   8.600000E+01   8.600000E+01   8.600000E+01   8.600000E+01   8.600000E+01   8.600000E+01   8.600000E+01   8.600000E+01   8.600000E+01   8.600000E+01   8.600000E+01   8.600000E+01   8.600000E+01   8.600000E+01   8.600000E+01   8.600000E+01   8.600000E+01   8.600000E+01   8.600000E+01   8.600000E+01   8.600000E+01   8.600000E+01   8.600000E+01   8.600000E+01   8.600000E+01   8.600000E+01   8.600000E+01   8.600000E+01   8.600000E+01   8.600000E+01   8.600000E+01   8.600000E+01   8.600000E+01   8.600000E+01   8.600000E+01   8.600000E+01   8.600000E+01   8.600000E+01   8.600000E+01   8.600000E+01   8.600000E+01   8.600000E+01   8.600000E+01   8.600000E+01   8.600000E+01   8.600000E+01   8.600000E+01   8.600000E+01   8.600000E+01   8.600000E+01   8.600000E+01   8.600000E+01   8.600000E+01   8.600000E+01
INTERNAL               1 (113E15.6) -1 #botm layer 9                  
   8.400000E+01   8.400000E+01   8.400000E+01   8.400000E+01   8.400000E+01   8.400000E+01   8.400000E+01   8.400000E+01   8.400000E+01   8.400000E+01   8.400000E+01   8.400000E+01   8.400000E+01   8.400000E+01   8.400000E+01   8.400000E+01   8.400000E+01   8.400000E+01   8.400000E+01   8.400000E+01   8.400000E+01   8.400000E+01   8.400000E+01   8.400000E+01   8.400000E+01   8.400000E+01   8.400000E+01   8.400000E+01   8.400000E+01   8.400000E+01   8.400000E+01   8.400000E+01   8.400000E+01   8.400000E+01   8.400000E+01   8.400000E+01   8.400000E+01   8.400000E+01   8.400000E+01   8.400000E+01   8.400000E+01   8.400000E+01   8.400000E+01   8.400000E+01   8.400000E+01   8.400000E+01   8.400000E+01   8.400000E+01   8.400000E+01   8.400000E+01   8.400000E+01   8.400000E+01   8.400000E+01   8.400000E+01   8.400000E+01   8.400000E+01   8.400000E+01   8.400000E+01   8.400000E+01   8.400000E+01   8.400000E+01   8.400000E+01   8.400000E+01   8.400000E+01   8.400000E+01   8.400000E+01   8.400000E+01   8.400000E+01   8.400000E+01   8.400000E+01   8.400000E+01   8.400000E+01   8.400000E+01   8.400000E+01   8.400000E+01   8.400000E+01   8.400000E+01   8.400000E+01   8.400000E+01   8.400000E+01   8.400000E+01   8.400000E+01   8.400000E+01   8.400000E+01   8.400000E+01   8.400000E+01   8.400000E+01   8.400000E+01   8.400000E+01   8.400000E+01   8.400000E+01   8.400000E+01   8.400000E+01   8.400000E+01   8.400000E+01   8.400000E+01   8.400000E+01   8.400000E+01   8.400000E+01   8.400000E+01   8.400000E+01   8.400000E+01   8.400000E+01   8.400000E+01   8.400000E+01   8.400000E+01   8.400000E+01   8.400000E+01   8.400000E+01   8.400000E+01   8.400000E+01   8.400000E+01   8.400000E+01
INTERNAL               1 (113E15.6) -1 #botm layer 10                 
   8.200000E+01   8.200000E+01   8.200000E+01   8.200000E+01   8.200000E+01   8.200000E+01   8.200000E+01   8.200000E+01   8.200000E+01   8.200000E+01   8.200000E+01   8.200000E+01   8.200000E+01   8.200000E+01   8.200000E+01   8.200000E+01   8.200000E+01   8.200000E+01   8.200000E+01   8.200000E+01   8.200000E+01   8.200000E+01   8.200000E+01   8.200000E+01   8.200000E+01   8.200000E+01   8.200000E+01   8.200000E+01   8.200000E+01   8.200000E+01   8.200000E+01   8.200000E+01   8.200000E+01   8.200000E+01   8.200000E+01   8.200000E+01   8.200000E+01   8.200000E+01   8.200000E+01   8.200000E+01   8.200000E+01   8.200000E+01   8.200000E+01   8.200000E+01   8.200000E+01   8.200000E+01   8.200000E+01   8.200000E+01   8.200000E+01   8.200000E+01   8.200000E+01   8.200000E+01   8.200000E+01   8.200000E+01   8.200000E+01   8.200000E+01   8.200000E+01   8.200000E+01   8.200000E+01   8.200000E+01   8.200000E+01   8.200000E+01   8.200000E+01   8.200000E+01   8.200000E+01   8.200000E+01   8.200000E+01   8.200000E+01   8.200000E+01   8.200000E+01   8.200000E+01   8.200000E+01   8.200000E+01   8.200000E+01   8.200000E+01   8.200000E+01   8.200000E+01   8.200000E+01   8.200000E+01   8.200000E+01   8.200000E+01   8.200000E+01   8.200000E+01   8.200000E+01   8.200000E+01   8.200000E+01   8.200000E+01   8.200000E+01   8.200000E+01   8.200000E+01   8.200000E+01   8.200000E+01   8.200000E+01   8.200000E+01   8.200000E+01   8.200000E+01   8.200000E+01   8.200000E+01   8.200000E+01   8.200000E+01   8.200000E+01   8.200000E+01   8.200000E+01   8.200000E+01   8.200000E+01   8.200000E+01   8.200000E+01   8.200000E+01   8.200000E+01   8.200000E+01   8.200000E+01   8.200000E+01   8.200000E+01
INTERNAL               1 (113E15.6) -1 #botm layer 11                 
   8.000000E+01   8.000000E+01   8.000000E+01   8.000000E+01   8.000000E+01   8.000000E+01   8.000000E+01   8.000000E+01   8.000000E+01   8.000000E+01   8.000000E+01   8.000000E+01   8.000000E+01   8.000000E+01   8.000000E+01   8.000000E+01   8.000000E+01   8.000000E+01   8.000000E+01   8.000000E+01   8.000000E+01   8.000000E+01   8.000000E+01   8.000000E+01   8.000000E+01   8.000000E+01   8.000000E+01   8.000000E+01   8.000000E+01   8.000000E+01   8.000000E+01   8.000000E+01   8.000000E+01   8.000000E+01   8.000000E+01   8.000000E+01   8.000000E+01   8.000000E+01   8.000000E+01   8.000000E+01   8.000000E+01   8.000000E+01   8.000000E+01   8.000000E+01   8.000000E+01   8.000000E+01   8.000000E+01   8.000000E+01   8.000000E+01   8.000000E+01   8.000000E+01   8.000000E+01   8.000000E+01   8.000000E+01   8.000000E+01   8.000000E+01   8.000000E+01   8.000000E+01   8.000000E+01   8.000000E+01   8.000000E+01   8.000000E+01   8.000000E+01   8.000000E+01   8.000000E+01   8.000000E+01   8.000000E+01   8.000000E+01   8.000000E+01   8.000000E+01   8.000000E+01   8.000000E+01   8.000000E+01   8.000000E+01   8.000000E+01   8.000000E+01   8.000000E+01   8.000000E+01   8.000000E+01   8.000000E+01   8.000000E+01   8.000000E+01   8.000000E+01   8.000000E+01   8.000000E+01   8.000000E+01   8.000000E+01   8.000000E+01   8.000000E+01   8.000000E+01   8.000000E+01   8.000000E+01   8.000000E+01   8.000000E+01   8.000000E+01   8.000000E+01   8.000000E+01   8.000000E+01   8.000000E+01   8.000000E+01   8.000000E+01   8.000000E+01   8.000000E+01   8.000000E+01   8.000000E+01   8.000000E+01   8.000000E+01   8.000000E+01   8.000000E+01   8.000000E+01   8.000000E+01   8.000000E+01   8.000000E+01
INTERNAL               1 (113E15.6) -1 #botm layer 12                 
   7.800000E+01   7.800000E+01   7.800000E+01   7.800000E+01   7.800000E+01   7.800000E+01   7.800000E+01   7.800000E+01   7.800000E+01   7.800000E+01   7.800000E+01   7.800000E+01   7.800000E+01   7.800000E+01   7.800000E+01   7.800000E+01   7.800000E+01   7.800000E+01   7.800000E+01   7.800000E+01   7.800000E+01   7.800000E+01   7.800000E+01   7.800000E+01   7.800000E+01   7.800000E+01   7.800000E+01   7.800000E+01   7.800000E+01   7.800000E+01   7.800000E+01   7.800000E+01   7.800000E+01   7.800000E+01   7.800000E+01   7.800000E+01   7.800000E+01   7.800000E+01   7.800000E+01   7.800000E+01   7.800000E+01   7.800000E+01   7.800000E+01   7.800000E+01   7.800000E+01   7.800000E+01   7.800000E+01   7.800000E+01   7.800000E+01   7.800000E+01   7.800000E+01   7.800000E+01   7.800000E+01   7.800000E+01   7.800000E+01   7.800000E+01   7.800000E+01   7.800000E+01   7.800000E+01   7.800000E+01   7.800000E+01   7.800000E+01   7.800000E+01   7.800000E+01   7.800000E+01   7.800000E+01   7.800000E+01   7.800000E+01   7.800000E+01   7.800000E+01   7.800000E+01   7.800000E+01   7.800000E+01   7.800000E+01   7.800000E+01   7.800000E+01   7.800000E+01   7.800000E+01   7.800000E+01   7.800000E+01   7.800000E+01   7.800000E+01   7.800000E+01   7.800000E+01   7.800000E+01   7.800000E+01   7.800000E+01   7.800000E+01   7.800000E+01   7.800000E+01   7.800000E+01   7.800000E+01   7.800000E+01   7.800000E+01   7.800000E+01   7.800000E+01   7.800000E+01   7.800000E+01   7.800000E+01   7.800000E+01   7.800000E+01   7.800000E+01   7.800000E+01   7.800000E+01   7.800000E+01   7.800000E+01   7.800000E+01   7.800000E+01   7.800000E+01   7.800000E+01   7.800000E+01   7.800000E+01   7.800000E+01
INTERNAL               1 (113E15.6) -1 #botm layer 13                 
   7.600000E+01   7.600000E+01   7.600000E+01   7.600000E+01   7.600000E+01   7.600000E+01   7.600000E+01   7.600000E+01   7.600000E+01   7.600000E+01   7.600000E+01   7.600000E+01   7.600000E+01   7.600000E+01   7.600000E+01   7.600000E+01   7.600000E+01   7.600000E+01   7.600000E+01   7.600000E+01   7.600000E+01   7.600000E+01   7.600000E+01   7.600000E+01   7.600000E+01   7.600000E+01   7.600000E+01   7.600000E+01   7.600000E+01   7.600000E+01   7.600000E+01   7.600000E+01   7.600000E+01   7.600000E+01   7.600000E+01   7.600000E+01   7.600000E+01   7.600000E+01   7.600000E+01   7.600000E+01   7.600000E+01   7.600000E+01   7.600000E+01   7.600000E+01   7.600000E+01   7.600000E+01   7.600000E+01   7.600000E+01   7.600000E+01   7.600000E+01   7.600000E+01   7.600000E+01   7.600000E+01   7.600000E+01   7.600000E+01   7.600000E+01   7.600000E+01   7.600000E+01   7.600000E+01   7.600000E+01   7.600000E+01   7.600000E+01   7.600000E+01   7.600000E+01   7.600000E+01   7.600000E+01   7.600000E+01   7.600000E+01   7.600000E+01   7.600000E+01   7.600000E+01   7.600000E+01   7.600000E+01   7.600000E+01   7.600000E+01   7.600000E+01   7.600000E+01   7.600000E+01   7.600000E+01   7.600000E+01   7.600000E+01   7.600000E+01   7.600000E+01   7.600000E+01   7.600000E+01   7.600000E+01   7.600000E+01   7.600000E+01   7.600000E+01   7.600000E+01   7.600000E+01   7.600000E+01   7.600000E+01   7.600000E+01   7.600000E+01   7.600000E+01   7.600000E+01   7.600000E+01   7.600000E+01   7.600000E+01   7.600000E+01   7.600000E+01   7.600000E+01   7.600000E+01   7.600000E+01   7.600000E+01   7.600000E+01   7.600000E+01   7.600000E+01   7.600000E+01   7.600000E+01   7.600000E+01   7.600000E+01
INTERNAL               1 (113E15.6) -1 #botm layer 14                 
   7.400000E+01   7.400000E+01   7.400000E+01   7.400000E+01   7.400000E+01   7.400000E+01   7.400000E+01   7.400000E+01   7.400000E+01   7.400000E+01   7.400000E+01   7.400000E+01   7.400000E+01   7.400000E+01   7.400000E+01   7.400000E+01   7.400000E+01   7.400000E+01   7.400000E+01   7.400000E+01   7.400000E+01   7.400000E+01   7.400000E+01   7.400000E+01   7.400000E+01   7.400000E+01   7.400000E+01   7.400000E+01   7.400000E+01   7.400000E+01   7.400000E+01   7.400000E+01   7.400000E+01   7.400000E+01   7.400000E+01   7.400000E+01   7.400000E+01   7.400000E+01   7.400000E+01   7.400000E+01   7.400000E+01   7.400000E+01   7.400000E+01   7.400000E+01   7.400000E+01   7.400000E+01   7.400000E+01   7.400000E+01   7.400000E+01   7.400000E+01   7.400000E+01   7.400000E+01   7.400000E+01   7.400000E+01   7.400000E+01   7.400000E+01   7.400000E+01   7.400000E+01   7.400000E+01   7.400000E+01   7.400000E+01   7.400000E+01   7.400000E+01   7.400000E+01   7.400000E+01   7.400000E+01   7.400000E+01   7.400000E+01   7.400000E+01   7.400000E+01   7.400000E+01   7.400000E+01   7.400000E+01   7.400000E+01   7.400000E+01   7.400000E+01   7.400000E+01   7.400000E+01   7.400000E+01   7.400000E+01   7.400000E+01   7.400000E+01   7.400000E+01   7.400000E+01   7.400000E+01   7.400000E+01   7.400000E+01   7.400000E+01   7.400000E+01   7.400000E+01   7.400000E+01   7.400000E+01   7.400000E+01   7.400000E+01   7.400000E+01   7.400000E+01   7.400000E+01   7.400000E+01   7.400000E+01   7.400000E+01   7.400000E+01   7.400000E+01   7.400000E+01   7.400000E+01   7.400000E+01   7.400000E+01   7.400000E+01   7.400000E+01   7.400000E+01   7.400000E+01   7.400000E+01   7.400000E+01   7.400000E+01
INTERNAL               1 (113E15.6) -1 #botm layer 15                 
   7.200000E+01   7.200000E+01   7.200000E+01   7.200000E+01   7.200000E+01   7.200000E+01   7.200000E+01   7.200000E+01   7.200000E+01   7.200000E+01   7.200000E+01   7.200000E+01   7.200000E+01   7.200000E+01   7.200000E+01   7.200000E+01   7.200000E+01   7.200000E+01   7.200000E+01   7.200000E+01   7.200000E+01   7.200000E+01   7.200000E+01   7.200000E+01   7.200000E+01   7.200000E+01   7.200000E+01   7.200000E+01   7.200000E+01   7.200000E+01   7.200000E+01   7.200000E+01   7.200000E+01   7.200000E+01   7.200000E+01   7.200000E+01   7.200000E+01   7.200000E+01   7.200000E+01   7.200000E+01   7.200000E+01   7.200000E+01   7.200000E+01   7.200000E+01   7.200000E+01   7.200000E+01   7.200000E+01   7.200000E+01   7.200000E+01   7.200000E+01   7.200000E+01   7.200000E+01   7.200000E+01   7.200000E+01   7.200000E+01   7.200000E+01   7.200000E+01   7.200000E+01   7.200000E+01   7.200000E+01   7.200000E+01   7.200000E+01   7.200000E+01   7.200000E+01   7.200000E+01   7.200000E+01   7.200000E+01   7.200000E+01   7.200000E+01   7.200000E+01   7.200000E+01   7.200000E+01   7.200000E+01   7.200000E+01   7.200000E+01   7.200000E+01   7.200000E+01   7.200000E+01   7.200000E+01   7.200000E+01   7.200000E+01   7.200000E+01   7.200000E+01   7.200000E+01   7.200000E+01   7.200000E+01   7.200000E+01   7.200000E+01   7.200000E+01   7.200000E+01   7.200000E+01   7.200000E+01   7.200000E+01   7.200000E+01   7.200000E+01   7.200000E+01   7.200000E+01   7.200000E+01   7.200000E+01   7.200000E+01   7.200000E+01   7.200000E+01   7.200000E+01   7.200000E+01   7.200000E+01   7.200000E+01   7.200000E+01   7.200000E+01   7.200000E+01   7.200000E+01   7.200000E+01   7.200000E+01   7.200000E+01
INTERNAL               1 (113E15.6) -1 #botm layer 16                 