# RIV package for MODFLOW-2005 generated by Flopy 3.4.1
        45         0
        45         0 # stress period 1
         1         1        14            94.8            50.0            92.8
         1         1        15            94.8            50.0            92.8
         1         1        16            94.9            50.0            92.9
         1         1        17            94.9            50.0            92.9
         1         1        18            95.0            50.0            93.0
         1         1        19            95.0            50.0            93.0
         1         1        20            95.0            50.0            93.0
         1         2        12            94.7            50.0            92.7
         1         2        13            94.7            50.0            92.7
         1         2        14            94.7            50.0            92.7
         1         3        11            94.6            50.0            92.6
         1         3        12            94.6            50.0            92.6
         1         4        10            94.5            50.0            92.5
         1         4        11            94.5            50.0            92.5
         1         5        10            94.5            50.0            92.5
         1         6         9            94.4            50.0            92.4
         1         6        10            94.4            50.0            92.2
         1         7         9            94.3            50.0            92.3
         1         8         9            94.2            50.0            92.2
         1         9         9            94.1            50.0            92.1
         1        10         9            94.0            50.0            92.0
         1        10        10            94.0            50.0            92.0
         1        11        10            93.5            50.0            91.5
         1        11        11            93.5            50.0            91.5
         1        12        11            93.0            50.0            91.5
         1        12        12            93.0            50.0            91.5
         1        12        13            93.0            50.0            91.5
         1        13        13            92.5            50.0            90.5
         1        13        14            92.5            50.0            90.5
         1        14        14            92.0            50.0            90.0
         1        14        15            92.0            50.0            90.0
         1        15        14            91.5            50.0            89.5
         1        15        15            91.5            50.0            89.5
         1        16        13            91.0            50.0            89.0
         1        16        14            91.0            50.0            89.0
         1        17        10            90.5            50.0            88.5
         1        17        11            90.5            50.0            88.5
         1        17        12            90.5            50.0            88.5
         1        17        13            90.5            50.0            88.5
         1        18         8            90.2            50.0            88.2
         1        18         9            90.2            50.0            88.2
         1        18        10            90.2            50.0            88.2
         1        19         6            90.0            50.0            88.0
         1        19         7            90.0            50.0            88.0
         1        19         8            90.0            50.0            88.0
