# DIS package for MODFLOW-2005 generated by Flopy 3.4.1
         1        19        33         1         4         2
  0
CONSTANT    1.000000E+02                           #delr                          
CONSTANT    1.000000E+02                           #delc                          
INTERNAL               1  (33E15.6) -1 #model_top                     
   1.080000E+02   1.060000E+02   1.040000E+02   1.020000E+02   1.000000E+02   9.800000E+01   9.600000E+01   9.800000E+01   1.000000E+02   1.020000E+02   1.040000E+02   1.060000E+02   1.080000E+02   1.100000E+02   1.120000E+02   1.140000E+02   1.120000E+02   1.100000E+02   1.080000E+02   1.060000E+02   1.040000E+02   1.020000E+02   1.000000E+02   1.020000E+02   1.040000E+02   1.060000E+02   1.080000E+02   1.100000E+02   1.120000E+02   1.140000E+02   1.160000E+02   1.180000E+02   1.200000E+02
   1.080000E+02   1.060000E+02   1.040000E+02   1.020000E+02   1.000000E+02   9.800000E+01   9.600000E+01   9.800000E+01   1.000000E+02   1.020000E+02   1.040000E+02   1.060000E+02   1.080000E+02   1.100000E+02   1.120000E+02   1.140000E+02   1.120000E+02   1.100000E+02   1.080000E+02   1.060000E+02   1.040000E+02   1.020000E+02   1.000000E+02   1.020000E+02   1.040000E+02   1.060000E+02   1.080000E+02   1.100000E+02   1.120000E+02   1.140000E+02   1.160000E+02   1.180000E+02   1.200000E+02
   1.080000E+02   1.060000E+02   1.040000E+02   1.020000E+02   1.000000E+02   9.800000E+01   9.600000E+01   9.800000E+01   1.000000E+02   1.020000E+02   1.040000E+02   1.060000E+02   1.080000E+02   1.100000E+02   1.120000E+02   1.140000E+02   1.120000E+02   1.100000E+02   1.080000E+02   1.060000E+02   1.040000E+02   1.020000E+02   1.000000E+02   1.020000E+02   1.040000E+02   1.060000E+02   1.080000E+02   1.100000E+02   1.120000E+02   1.140000E+02   1.160000E+02   1.180000E+02   1.200000E+02
   1.080000E+02   1.060000E+02   1.040000E+02   1.020000E+02   1.000000E+02   9.800000E+01   9.600000E+01   9.800000E+01   1.000000E+02   1.020000E+02   1.040000E+02   1.060000E+02   1.080000E+02   1.100000E+02   1.120000E+02   1.140000E+02   1.120000E+02   1.100000E+02   1.080000E+02   1.060000E+02   1.040000E+02   1.020000E+02   1.000000E+02   1.020000E+02   1.040000E+02   1.060000E+02   1.080000E+02   1.100000E+02   1.120000E+02   1.140000E+02   1.160000E+02   1.180000E+02   1.200000E+02
   1.080000E+02   1.060000E+02   1.040000E+02   1.020000E+02   1.000000E+02   9.800000E+01   9.600000E+01   9.800000E+01   1.000000E+02   1.020000E+02   1.040000E+02   1.060000E+02   1.080000E+02   1.100000E+02   1.120000E+02   1.140000E+02   1.120000E+02   1.100000E+02   1.080000E+02   1.060000E+02   1.040000E+02   1.020000E+02   1.000000E+02   1.020000E+02   1.040000E+02   1.060000E+02   1.080000E+02   1.100000E+02   1.120000E+02   1.140000E+02   1.160000E+02   1.180000E+02   1.200000E+02
   1.080000E+02   1.060000E+02   1.040000E+02   1.020000E+02   1.000000E+02   9.800000E+01   9.600000E+01   9.800000E+01   1.000000E+02   1.020000E+02   1.040000E+02   1.060000E+02   1.080000E+02   1.100000E+02   1.120000E+02   1.140000E+02   1.120000E+02   1.100000E+02   1.080000E+02   1.060000E+02   1.040000E+02   1.020000E+02   1.000000E+02   1.020000E+02   1.040000E+02   1.060000E+02   1.080000E+02   1.100000E+02   1.120000E+02   1.140000E+02   1.160000E+02   1.180000E+02   1.200000E+02
   1.080000E+02   1.060000E+02   1.040000E+02   1.020000E+02   1.000000E+02   9.800000E+01   9.600000E+01   9.800000E+01   1.000000E+02   1.020000E+02   1.040000E+02   1.060000E+02   1.080000E+02   1.100000E+02   1.120000E+02   1.140000E+02   1.120000E+02   1.100000E+02   1.080000E+02   1.060000E+02   1.040000E+02   1.020000E+02   1.000000E+02   1.020000E+02   1.040000E+02   1.060000E+02   1.080000E+02   1.100000E+02   1.120000E+02   1.140000E+02   1.160000E+02   1.180000E+02   1.200000E+02
   1.080000E+02   1.060000E+02   1.040000E+02   1.020000E+02   1.000000E+02   9.800000E+01   9.600000E+01   9.800000E+01   1.000000E+02   1.020000E+02   1.040000E+02   1.060000E+02   1.080000E+02   1.100000E+02   1.120000E+02   1.140000E+02   1.120000E+02   1.100000E+02   1.080000E+02   1.060000E+02   1.040000E+02   1.020000E+02   1.000000E+02   1.020000E+02   1.040000E+02   1.060000E+02   1.080000E+02   1.100000E+02   1.120000E+02   1.140000E+02   1.160000E+02   1.180000E+02   1.200000E+02
   1.080000E+02   1.060000E+02   1.040000E+02   1.020000E+02   1.000000E+02   9.800000E+01   9.600000E+01   9.800000E+01   1.000000E+02   1.020000E+02   1.040000E+02   1.060000E+02   1.080000E+02   1.100000E+02   1.120000E+02   1.140000E+02   1.120000E+02   1.100000E+02   1.080000E+02   1.060000E+02   1.040000E+02   1.020000E+02   1.000000E+02   1.020000E+02   1.040000E+02   1.060000E+02   1.080000E+02   1.100000E+02   1.120000E+02   1.140000E+02   1.160000E+02   1.180000E+02   1.200000E+02
   1.080000E+02   1.060000E+02   1.040000E+02   1.020000E+02   1.000000E+02   9.800000E+01   9.600000E+01   9.800000E+01   1.000000E+02   1.020000E+02   1.040000E+02   1.060000E+02   1.080000E+02   1.100000E+02   1.120000E+02   1.140000E+02   1.120000E+02   1.100000E+02   1.080000E+02   1.060000E+02   1.040000E+02   1.020000E+02   1.000000E+02   1.020000E+02   1.040000E+02   1.060000E+02   1.080000E+02   1.100000E+02   1.120000E+02   1.140000E+02   1.160000E+02   1.180000E+02   1.200000E+02
   1.080000E+02   1.060000E+02   1.040000E+02   1.020000E+02   1.000000E+02   9.800000E+01   9.600000E+01   9.800000E+01   1.000000E+02   1.020000E+02   1.040000E+02   1.060000E+02   1.080000E+02   1.100000E+02   1.120000E+02   1.140000E+02   1.120000E+02   1.100000E+02   1.080000E+02   1.060000E+02   1.040000E+02   1.020000E+02   1.000000E+02   1.020000E+02   1.040000E+02   1.060000E+02   1.080000E+02   1.100000E+02   1.120000E+02   1.140000E+02   1.160000E+02   1.180000E+02   1.200000E+02
   1.080000E+02   1.060000E+02   1.040000E+02   1.020000E+02   1.000000E+02   9.800000E+01   9.600000E+01   9.800000E+01   1.000000E+02   1.020000E+02   1.040000E+02   1.060000E+02   1.080000E+02   1.100000E+02   1.120000E+02   1.140000E+02   1.120000E+02   1.100000E+02   1.080000E+02   1.060000E+02   1.040000E+02   1.020000E+02   1.000000E+02   1.020000E+02   1.040000E+02   1.060000E+02   1.080000E+02   1.100000E+02   1.120000E+02   1.140000E+02   1.160000E+02   1.180000E+02   1.200000E+02
   1.080000E+02   1.060000E+02   1.040000E+02   1.020000E+02   1.000000E+02   9.800000E+01   9.600000E+01   9.800000E+01   1.000000E+02   1.020000E+02   1.040000E+02   1.060000E+02   1.080000E+02   1.100000E+02   1.120000E+02   1.140000E+02   1.300000E+02   1.300000E+02   1.300000E+02   1.060000E+02   1.040000E+02   1.020000E+02   1.000000E+02   1.020000E+02   1.040000E+02   1.060000E+02   1.080000E+02   1.100000E+02   1.120000E+02   1.140000E+02   1.160000E+02   1.180000E+02   1.200000E+02
   1.080000E+02   1.060000E+02   1.040000E+02   1.020000E+02   1.000000E+02   9.800000E+01   9.600000E+01   9.800000E+01   1.000000E+02   1.020000E+02   1.040000E+02   1.060000E+02   1.080000E+02   1.100000E+02   1.120000E+02   1.140000E+02   1.300000E+02   1.400000E+02   1.300000E+02   1.060000E+02   1.040000E+02   1.020000E+02   1.000000E+02   1.020000E+02   1.040000E+02   1.060000E+02   1.080000E+02   1.100000E+02   1.120000E+02   1.140000E+02   1.160000E+02   1.180000E+02   1.200000E+02
   1.080000E+02   1.060000E+02   1.040000E+02   1.020000E+02   1.000000E+02   9.800000E+01   9.600000E+01   9.800000E+01   1.000000E+02   1.020000E+02   1.040000E+02   1.060000E+02   1.080000E+02   1.100000E+02   1.120000E+02   1.140000E+02   1.300000E+02   1.400000E+02   1.300000E+02   1.060000E+02   1.040000E+02   1.020000E+02   1.000000E+02   1.020000E+02   1.040000E+02   1.060000E+02   1.080000E+02   1.100000E+02   1.120000E+02   1.140000E+02   1.160000E+02   1.180000E+02   1.200000E+02
   1.080000E+02   1.060000E+02   1.040000E+02   1.020000E+02   1.000000E+02   9.800000E+01   9.600000E+01   9.800000E+01   1.000000E+02   1.020000E+02   1.040000E+02   1.060000E+02   1.080000E+02   1.100000E+02   1.120000E+02   1.140000E+02   1.300000E+02   1.300000E+02   1.300000E+02   1.060000E+02   1.040000E+02   1.020000E+02   1.000000E+02   1.020000E+02   1.040000E+02   1.060000E+02   1.080000E+02   1.100000E+02   1.120000E+02   1.140000E+02   1.160000E+02   1.180000E+02   1.200000E+02
   1.080000E+02   1.060000E+02   1.040000E+02   1.020000E+02   1.000000E+02   9.800000E+01   9.600000E+01   9.800000E+01   1.000000E+02   1.020000E+02   1.040000E+02   1.060000E+02   1.080000E+02   1.100000E+02   1.120000E+02   1.140000E+02   1.120000E+02   1.100000E+02   1.080000E+02   1.060000E+02   1.040000E+02   1.020000E+02   1.000000E+02   1.020000E+02   1.040000E+02   1.060000E+02   1.080000E+02   1.100000E+02   1.120000E+02   1.140000E+02   1.160000E+02   1.180000E+02   1.200000E+02
   1.080000E+02   1.060000E+02   1.040000E+02   1.020000E+02   1.000000E+02   9.800000E+01   9.600000E+01   9.800000E+01   1.000000E+02   1.020000E+02   1.040000E+02   1.060000E+02   1.080000E+02   1.100000E+02   1.120000E+02   1.140000E+02   1.120000E+02   1.100000E+02   1.080000E+02   1.060000E+02   1.040000E+02   1.020000E+02   1.000000E+02   1.020000E+02   1.040000E+02   1.060000E+02   1.080000E+02   1.100000E+02   1.120000E+02   1.140000E+02   1.160000E+02   1.180000E+02   1.200000E+02
   1.080000E+02   1.060000E+02   1.040000E+02   1.020000E+02   1.000000E+02   9.800000E+01   9.600000E+01   9.800000E+01   1.000000E+02   1.020000E+02   1.040000E+02   1.060000E+02   1.080000E+02   1.100000E+02   1.120000E+02   1.140000E+02   1.120000E+02   1.100000E+02   1.080000E+02   1.060000E+02   1.040000E+02   1.020000E+02   1.000000E+02   1.020000E+02   1.040000E+02   1.060000E+02   1.080000E+02   1.100000E+02   1.120000E+02   1.140000E+02   1.160000E+02   1.180000E+02   1.200000E+02
INTERNAL               1  (33E15.6) -1 #botm layer 1                  
   6.800000E+01   6.600000E+01   6.400000E+01   6.200000E+01   6.000000E+01   5.800000E+01   5.600000E+01   5.800000E+01   6.000000E+01   6.200000E+01   6.400000E+01   6.600000E+01   6.800000E+01   7.000000E+01   7.200000E+01   7.400000E+01   7.200000E+01   7.000000E+01   6.800000E+01   6.600000E+01   6.400000E+01   6.200000E+01   6.000000E+01   6.200000E+01   6.400000E+01   6.600000E+01   6.800000E+01   7.000000E+01   7.200000E+01   7.400000E+01   7.600000E+01   7.800000E+01   8.000000E+01
   6.800000E+01   6.600000E+01   6.400000E+01   6.200000E+01   6.000000E+01   5.800000E+01   5.600000E+01   5.800000E+01   6.000000E+01   6.200000E+01   6.400000E+01   6.600000E+01   6.800000E+01   7.000000E+01   7.200000E+01   7.400000E+01   7.200000E+01   7.000000E+01   6.800000E+01   6.600000E+01   6.400000E+01   6.200000E+01   6.000000E+01   6.200000E+01   6.400000E+01   6.600000E+01   6.800000E+01   7.000000E+01   7.200000E+01   7.400000E+01   7.600000E+01   7.800000E+01   8.000000E+01
   6.800000E+01   6.600000E+01   6.400000E+01   6.200000E+01   6.000000E+01   5.800000E+01   5.600000E+01   5.800000E+01   6.000000E+01   6.200000E+01   6.400000E+01   6.600000E+01   6.800000E+01   7.000000E+01   7.200000E+01   7.400000E+01   7.200000E+01   7.000000E+01   6.800000E+01   6.600000E+01   6.400000E+01   6.200000E+01   6.000000E+01   6.200000E+01   6.400000E+01   6.600000E+01   6.800000E+01   7.000000E+01   7.200000E+01   7.400000E+01   7.600000E+01   7.800000E+01   8.000000E+01
   6.800000E+01   6.600000E+01   6.400000E+01   6.200000E+01   6.000000E+01   5.800000E+01   5.600000E+01   5.800000E+01   6.000000E+01   6.200000E+01   6.400000E+01   6.600000E+01   6.800000E+01   7.000000E+01   7.200000E+01   7.400000E+01   7.200000E+01   7.000000E+01   6.800000E+01   6.600000E+01   6.400000E+01   6.200000E+01   6.000000E+01   6.200000E+01   6.400000E+01   6.600000E+01   6.800000E+01   7.000000E+01   7.200000E+01   7.400000E+01   7.600000E+01   7.800000E+01   8.000000E+01
   6.800000E+01   6.600000E+01   6.400000E+01   6.200000E+01   6.000000E+01   5.800000E+01   5.600000E+01   5.800000E+01   6.000000E+01   6.200000E+01   6.400000E+01   6.600000E+01   6.800000E+01   7.000000E+01   7.200000E+01   7.400000E+01   7.200000E+01   7.000000E+01   6.800000E+01   6.600000E+01   6.400000E+01   6.200000E+01   6.000000E+01   6.200000E+01   6.400000E+01   6.600000E+01   6.800000E+01   7.000000E+01   7.200000E+01   7.400000E+01   7.600000E+01   7.800000E+01   8.000000E+01
   6.800000E+01   6.600000E+01   6.400000E+01   6.200000E+01   6.000000E+01   5.800000E+01   5.600000E+01   5.800000E+01   6.000000E+01   6.200000E+01   6.400000E+01   6.600000E+01   6.800000E+01   7.000000E+01   7.200000E+01   7.400000E+01   7.200000E+01   7.000000E+01   6.800000E+01   6.600000E+01   6.400000E+01   6.200000E+01   6.000000E+01   6.200000E+01   6.400000E+01   6.600000E+01   6.800000E+01   7.000000E+01   7.200000E+01   7.400000E+01   7.600000E+01   7.800000E+01   8.000000E+01
   6.800000E+01   6.600000E+01   6.400000E+01   6.200000E+01   6.000000E+01   5.800000E+01   5.600000E+01   5.800000E+01   6.000000E+01   6.200000E+01   6.400000E+01   6.600000E+01   6.800000E+01   7.000000E+01   7.200000E+01   7.400000E+01   7.200000E+01   7.000000E+01   6.800000E+01   6.600000E+01   6.400000E+01   6.200000E+01   6.000000E+01   6.200000E+01   6.400000E+01   6.600000E+01   6.800000E+01   7.000000E+01   7.200000E+01   7.400000E+01   7.600000E+01   7.800000E+01   8.000000E+01
   6.800000E+01   6.600000E+01   6.400000E+01   6.200000E+01   6.000000E+01   5.800000E+01   5.600000E+01   5.800000E+01   6.000000E+01   6.200000E+01   6.400000E+01   6.600000E+01   6.800000E+01   7.000000E+01   7.200000E+01   7.400000E+01   7.200000E+01   7.000000E+01   6.800000E+01   6.600000E+01   6.400000E+01   6.200000E+01   6.000000E+01   6.200000E+01   6.400000E+01   6.600000E+01   6.800000E+01   7.000000E+01   7.200000E+01   7.400000E+01   7.600000E+01   7.800000E+01   8.000000E+01
   6.800000E+01   6.600000E+01   6.400000E+01   6.200000E+01   6.000000E+01   5.800000E+01   5.600000E+01   5.800000E+01   6.000000E+01   6.200000E+01   6.400000E+01   6.600000E+01   6.800000E+01   7.000000E+01   7.200000E+01   7.400000E+01   7.200000E+01   7.000000E+01   6.800000E+01   6.600000E+01   6.400000E+01   6.200000E+01   6.000000E+01   6.200000E+01   6.400000E+01   6.600000E+01   6.800000E+01   7.000000E+01   7.200000E+01   7.400000E+01   7.600000E+01   7.800000E+01   8.000000E+01
   6.800000E+01   6.600000E+01   6.400000E+01   6.200000E+01   6.000000E+01   5.800000E+01   5.600000E+01   5.800000E+01   6.000000E+01   6.200000E+01   6.400000E+01   6.600000E+01   6.800000E+01   7.000000E+01   7.200000E+01   7.400000E+01   7.200000E+01   7.000000E+01   6.800000E+01   6.600000E+01   6.400000E+01   6.200000E+01   6.000000E+01   6.200000E+01   6.400000E+01   6.600000E+01   6.800000E+01   7.000000E+01   7.200000E+01   7.400000E+01   7.600000E+01   7.800000E+01   8.000000E+01
   6.800000E+01   6.600000E+01   6.400000E+01   6.200000E+01   6.000000E+01   5.800000E+01   5.600000E+01   5.800000E+01   6.000000E+01   6.200000E+01   6.400000E+01   6.600000E+01   6.800000E+01   7.000000E+01   7.200000E+01   7.400000E+01   7.200000E+01   7.000000E+01   6.800000E+01   6.600000E+01   6.400000E+01   6.200000E+01   6.000000E+01   6.200000E+01   6.400000E+01   6.600000E+01   6.800000E+01   7.000000E+01   7.200000E+01   7.400000E+01   7.600000E+01   7.800000E+01   8.000000E+01
   6.800000E+01   6.600000E+01   6.400000E+01   6.200000E+01   6.000000E+01   5.800000E+01   5.600000E+01   5.800000E+01   6.000000E+01   6.200000E+01   6.400000E+01   6.600000E+01   6.800000E+01   7.000000E+01   7.200000E+01   7.400000E+01   7.200000E+01   7.000000E+01   6.800000E+01   6.600000E+01   6.400000E+01   6.200000E+01   6.000000E+01   6.200000E+01   6.400000E+01   6.600000E+01   6.800000E+01   7.000000E+01   7.200000E+01   7.400000E+01   7.600000E+01   7.800000E+01   8.000000E+01
   6.800000E+01   6.600000E+01   6.400000E+01   6.200000E+01   6.000000E+01   5.800000E+01   5.600000E+01   5.800000E+01   6.000000E+01   6.200000E+01   6.400000E+01   6.600000E+01   6.800000E+01   7.000000E+01   7.200000E+01   7.400000E+01   9.000000E+01   9.000000E+01   9.000000E+01   6.600000E+01   6.400000E+01   6.200000E+01   6.000000E+01   6.200000E+01   6.400000E+01   6.600000E+01   6.800000E+01   7.000000E+01   7.200000E+01   7.400000E+01   7.600000E+01   7.800000E+01   8.000000E+01
   6.800000E+01   6.600000E+01   6.400000E+01   6.200000E+01   6.000000E+01   5.800000E+01   5.600000E+01   5.800000E+01   6.000000E+01   6.200000E+01   6.400000E+01   6.600000E+01   6.800000E+01   7.000000E+01   7.200000E+01   7.400000E+01   9.000000E+01   1.000000E+02   9.000000E+01   6.600000E+01   6.400000E+01   6.200000E+01   6.000000E+01   6.200000E+01   6.400000E+01   6.600000E+01   6.800000E+01   7.000000E+01   7.200000E+01   7.400000E+01   7.600000E+01   7.800000E+01   8.000000E+01
   6.800000E+01   6.600000E+01   6.400000E+01   6.200000E+01   6.000000E+01   5.800000E+01   5.600000E+01   5.800000E+01   6.000000E+01   6.200000E+01   6.400000E+01   6.600000E+01   6.800000E+01   7.000000E+01   7.200000E+01   7.400000E+01   9.000000E+01   1.000000E+02   9.000000E+01   6.600000E+01   6.400000E+01   6.200000E+01   6.000000E+01   6.200000E+01   6.400000E+01   6.600000E+01   6.800000E+01   7.000000E+01   7.200000E+01   7.400000E+01   7.600000E+01   7.800000E+01   8.000000E+01
   6.800000E+01   6.600000E+01   6.400000E+01   6.200000E+01   6.000000E+01   5.800000E+01   5.600000E+01   5.800000E+01   6.000000E+01   6.200000E+01   6.400000E+01   6.600000E+01   6.800000E+01   7.000000E+01   7.200000E+01   7.400000E+01   9.000000E+01   9.000000E+01   9.000000E+01   6.600000E+01   6.400000E+01   6.200000E+01   6.000000E+01   6.200000E+01   6.400000E+01   6.600000E+01   6.800000E+01   7.000000E+01   7.200000E+01   7.400000E+01   7.600000E+01   7.800000E+01   8.000000E+01
   6.800000E+01   6.600000E+01   6.400000E+01   6.200000E+01   6.000000E+01   5.800000E+01   5.600000E+01   5.800000E+01   6.000000E+01   6.200000E+01   6.400000E+01   6.600000E+01   6.800000E+01   7.000000E+01   7.200000E+01   7.400000E+01   7.200000E+01   7.000000E+01   6.800000E+01   6.600000E+01   6.400000E+01   6.200000E+01   6.000000E+01   6.200000E+01   6.400000E+01   6.600000E+01   6.800000E+01   7.000000E+01   7.200000E+01   7.400000E+01   7.600000E+01   7.800000E+01   8.000000E+01
   6.800000E+01   6.600000E+01   6.400000E+01   6.200000E+01   6.000000E+01   5.800000E+01   5.600000E+01   5.800000E+01   6.000000E+01   6.200000E+01   6.400000E+01   6.600000E+01   6.800000E+01   7.000000E+01   7.200000E+01   7.400000E+01   7.200000E+01   7.000000E+01   6.800000E+01   6.600000E+01   6.400000E+01   6.200000E+01   6.000000E+01   6.200000E+01   6.400000E+01   6.600000E+01   6.800000E+01   7.000000E+01   7.200000E+01   7.400000E+01   7.600000E+01   7.800000E+01   8.000000E+01
   6.800000E+01   6.600000E+01   6.400000E+01   6.200000E+01   6.000000E+01   5.800000E+01   5.600000E+01   5.800000E+01   6.000000E+01   6.200000E+01   6.400000E+01   6.600000E+01   6.800000E+01   7.000000E+01   7.200000E+01   7.400000E+01   7.200000E+01   7.000000E+01   6.800000E+01   6.600000E+01   6.400000E+01   6.200000E+01   6.000000E+01   6.200000E+01   6.400000E+01   6.600000E+01   6.800000E+01   7.000000E+01   7.200000E+01   7.400000E+01   7.600000E+01   7.800000E+01   8.000000E+01
      1.000000             1  1.000000  SS
