# WEL package for MODFLOW-2005 generated by Flopy 3.7.0
         3         0 
         3         0 # stress period 1
         1         6        16        -20000.0
         1         8         5        -10000.0
         1        10        19         -5000.0
