# DIS package for MODFLOW-2005 generated by Flopy 3.7.0
         1        19        33         1         4         2
  0
CONSTANT    1.000000E+02                           #delr                          
CONSTANT    1.000000E+02                           #delc                          
CONSTANT    1.000000E+01                           #model_top                     
CONSTANT    0.000000E+00                           #botm layer 1                  
    500.000000            30  1.500000  TR
