# LPF package for MODFLOW-2005 generated by Flopy 3.4.1
        53    -1E+30         0  
         0
         0
   1.000000E+00
         0
         0
INTERNAL               1  (33E15.6) -1 #hk layer 1                    
   0.000000E+00   0.000000E+00   0.000000E+00   0.000000E+00   0.000000E+00   0.000000E+00   0.000000E+00   0.000000E+00   0.000000E+00   0.000000E+00   0.000000E+00   0.000000E+00   1.000000E+02   1.000000E+02   1.000000E+02   2.000000E+02   2.000000E+02   2.000000E+02   2.000000E+02   2.000000E+02   2.000000E+02   2.000000E+02   5.000000E+01   5.000000E+01   5.000000E+01   5.000000E+01   5.000000E+01   5.000000E+01   5.000000E+01   5.000000E+01   5.000000E+01   5.000000E+01   0.000000E+00
   0.000000E+00   0.000000E+00   1.000000E+02   1.000000E+02   1.000000E+02   1.000000E+02   1.000000E+02   1.000000E+02   1.000000E+02   1.000000E+02   1.000000E+02   1.000000E+02   1.000000E+02   1.000000E+02   1.000000E+02   2.000000E+02   2.000000E+02   2.000000E+02   2.000000E+02   2.000000E+02   2.000000E+02   2.000000E+02   5.000000E+01   5.000000E+01   5.000000E+01   5.000000E+01   5.000000E+01   5.000000E+01   5.000000E+01   5.000000E+01   5.000000E+01   5.000000E+01   5.000000E+01
   0.000000E+00   1.000000E+02   1.000000E+02   1.000000E+02   1.000000E+02   1.000000E+02   1.000000E+02   1.000000E+02   1.000000E+02   1.000000E+02   1.000000E+02   1.000000E+02   1.000000E+02   1.000000E+02   2.000000E+02   2.000000E+02   2.000000E+02   2.000000E+02   2.000000E+02   2.000000E+02   2.000000E+02   5.000000E+01   5.000000E+01   5.000000E+01   5.000000E+01   5.000000E+01   5.000000E+01   5.000000E+01   5.000000E+01   5.000000E+01   5.000000E+01   5.000000E+01   5.000000E+01
   1.000000E+02   1.000000E+02   1.000000E+02   1.000000E+02   1.000000E+02   1.000000E+02   1.000000E+02   1.000000E+02   1.000000E+02   1.000000E+02   1.000000E+02   1.000000E+02   2.000000E+02   2.000000E+02   2.000000E+02   2.000000E+02   2.000000E+02   2.000000E+02   2.000000E+02   5.000000E+01   5.000000E+01   5.000000E+01   5.000000E+01   5.000000E+01   5.000000E+01   5.000000E+01   5.000000E+01   5.000000E+01   5.000000E+01   5.000000E+01   5.000000E+01   5.000000E+01   5.000000E+01
   1.000000E+02   1.000000E+02   1.000000E+02   1.000000E+02   1.000000E+02   1.000000E+02   1.000000E+02   1.000000E+02   1.000000E+02   1.000000E+02   1.000000E+02   1.000000E+02   2.000000E+02   2.000000E+02   2.000000E+02   2.000000E+02   2.000000E+02   2.000000E+02   2.000000E+02   5.000000E+01   5.000000E+01   5.000000E+01   5.000000E+01   5.000000E+01   5.000000E+01   5.000000E+01   5.000000E+01   5.000000E+01   5.000000E+01   5.000000E+01   5.000000E+01   5.000000E+01   5.000000E+01
   1.000000E+02   1.000000E+02   1.000000E+02   1.000000E+02   1.000000E+02   1.000000E+02   1.000000E+02   1.000000E+02   1.000000E+02   1.000000E+02   1.000000E+02   2.000000E+02   2.000000E+02   2.000000E+02   2.000000E+02   2.000000E+02   2.000000E+02   2.000000E+02   2.000000E+02   5.000000E+01   5.000000E+01   5.000000E+01   5.000000E+01   5.000000E+01   5.000000E+01   5.000000E+01   5.000000E+01   5.000000E+01   5.000000E+01   5.000000E+01   5.000000E+01   5.000000E+01   5.000000E+01
   1.000000E+02   1.000000E+02   1.000000E+02   1.000000E+02   1.000000E+02   1.000000E+02   1.000000E+02   1.000000E+02   1.000000E+02   1.000000E+02   2.000000E+02   2.000000E+02   2.000000E+02   2.000000E+02   2.000000E+02   2.000000E+02   2.000000E+02   2.000000E+02   2.000000E+02   5.000000E+01   5.000000E+01   5.000000E+01   5.000000E+01   5.000000E+01   5.000000E+01   5.000000E+01   5.000000E+01   5.000000E+01   5.000000E+01   5.000000E+01   5.000000E+01   0.000000E+00   0.000000E+00
   1.000000E+02   1.000000E+02   1.000000E+02   1.000000E+02   1.000000E+02   1.000000E+02   1.000000E+02   1.000000E+02   2.000000E+02   2.000000E+02   2.000000E+02   2.000000E+02   2.000000E+02   2.000000E+02   2.000000E+02   2.000000E+02   2.000000E+02   2.000000E+02   2.000000E+02   5.000000E+01   5.000000E+01   5.000000E+01   5.000000E+01   5.000000E+01   5.000000E+01   5.000000E+01   5.000000E+01   5.000000E+01   0.000000E+00   0.000000E+00   0.000000E+00   0.000000E+00   0.000000E+00
   1.000000E+02   1.000000E+02   1.000000E+02   1.000000E+02   1.000000E+02   1.000000E+02   1.000000E+02   1.000000E+02   2.000000E+02   2.000000E+02   2.000000E+02   2.000000E+02   2.000000E+02   2.000000E+02   2.000000E+02   2.000000E+02   2.000000E+02   2.000000E+02   2.000000E+02   5.000000E+01   5.000000E+01   5.000000E+01   5.000000E+01   5.000000E+01   5.000000E+01   5.000000E+01   5.000000E+01   0.000000E+00   0.000000E+00   0.000000E+00   0.000000E+00   0.000000E+00   0.000000E+00
   1.000000E+02   1.000000E+02   1.000000E+02   1.000000E+02   1.000000E+02   1.000000E+02   1.000000E+02   1.000000E+02   2.000000E+02   2.000000E+02   2.000000E+02   2.000000E+02   2.000000E+02   2.000000E+02   2.000000E+02   2.000000E+02   2.000000E+02   2.000000E+02   2.000000E+02   5.000000E+01   5.000000E+01   5.000000E+01   5.000000E+01   5.000000E+01   5.000000E+01   5.000000E+01   5.000000E+01   0.000000E+00   0.000000E+00   0.000000E+00   0.000000E+00   0.000000E+00   0.000000E+00
   1.000000E+02   1.000000E+02   1.000000E+02   1.000000E+02   1.000000E+02   1.000000E+02   1.000000E+02   1.000000E+02   2.000000E+02   2.000000E+02   2.000000E+02   2.000000E+02   2.000000E+02   2.000000E+02   2.000000E+02   2.000000E+02   2.000000E+02   2.000000E+02   2.000000E+02   5.000000E+01   5.000000E+01   5.000000E+01   5.000000E+01   5.000000E+01   5.000000E+01   5.000000E+01   5.000000E+01   0.000000E+00   0.000000E+00   0.000000E+00   0.000000E+00   0.000000E+00   0.000000E+00
   1.000000E+02   1.000000E+02   1.000000E+02   1.000000E+02   1.000000E+02   1.000000E+02   1.000000E+02   1.000000E+02   2.000000E+02   2.000000E+02   2.000000E+02   2.000000E+02   2.000000E+02   2.000000E+02   2.000000E+02   2.000000E+02   2.000000E+02   2.000000E+02   2.000000E+02   5.000000E+01   5.000000E+01   5.000000E+01   5.000000E+01   5.000000E+01   5.000000E+01   5.000000E+01   5.000000E+01   0.000000E+00   0.000000E+00   0.000000E+00   0.000000E+00   0.000000E+00   0.000000E+00
   1.000000E+02   1.000000E+02   1.000000E+02   1.000000E+02   1.000000E+02   1.000000E+02   2.000000E+02   2.000000E+02   2.000000E+02   2.000000E+02   2.000000E+02   2.000000E+02   2.000000E+02   2.000000E+02   2.000000E+02   2.000000E+02   2.000000E+02   2.000000E+02   2.000000E+02   5.000000E+01   5.000000E+01   5.000000E+01   5.000000E+01   5.000000E+01   5.000000E+01   5.000000E+01   5.000000E+01   0.000000E+00   0.000000E+00   0.000000E+00   0.000000E+00   0.000000E+00   0.000000E+00
   1.000000E+02   1.000000E+02   1.000000E+02   1.000000E+02   1.000000E+02   1.000000E+02   2.000000E+02   2.000000E+02   2.000000E+02   2.000000E+02   2.000000E+02   2.000000E+02   2.000000E+02   2.000000E+02   2.000000E+02   2.000000E+02   2.000000E+02   2.000000E+02   2.000000E+02   5.000000E+01   5.000000E+01   5.000000E+01   5.000000E+01   5.000000E+01   5.000000E+01   5.000000E+01   5.000000E+01   0.000000E+00   0.000000E+00   0.000000E+00   0.000000E+00   0.000000E+00   0.000000E+00
   0.000000E+00   1.000000E+02   1.000000E+02   1.000000E+02   1.000000E+02   2.000000E+02   2.000000E+02   2.000000E+02   2.000000E+02   2.000000E+02   2.000000E+02   2.000000E+02   2.000000E+02   2.000000E+02   2.000000E+02   2.000000E+02   2.000000E+02   2.000000E+02   2.000000E+02   5.000000E+01   5.000000E+01   5.000000E+01   5.000000E+01   5.000000E+01   5.000000E+01   5.000000E+01   5.000000E+01   0.000000E+00   0.000000E+00   0.000000E+00   0.000000E+00   0.000000E+00   0.000000E+00
   0.000000E+00   1.000000E+02   1.000000E+02   1.000000E+02   1.000000E+02   2.000000E+02   2.000000E+02   2.000000E+02   2.000000E+02   2.000000E+02   2.000000E+02   2.000000E+02   2.000000E+02   2.000000E+02   2.000000E+02   2.000000E+02   2.000000E+02   2.000000E+02   2.000000E+02   5.000000E+01   5.000000E+01   5.000000E+01   5.000000E+01   5.000000E+01   5.000000E+01   5.000000E+01   0.000000E+00   0.000000E+00   0.000000E+00   0.000000E+00   0.000000E+00   0.000000E+00   0.000000E+00
   0.000000E+00   1.000000E+02   1.000000E+02   1.000000E+02   2.000000E+02   2.000000E+02   2.000000E+02   2.000000E+02   2.000000E+02   2.000000E+02   2.000000E+02   2.000000E+02   2.000000E+02   2.000000E+02   2.000000E+02   2.000000E+02   2.000000E+02   2.000000E+02   2.000000E+02   5.000000E+01   5.000000E+01   5.000000E+01   5.000000E+01   5.000000E+01   5.000000E+01   0.000000E+00   0.000000E+00   0.000000E+00   0.000000E+00   0.000000E+00   0.000000E+00   0.000000E+00   0.000000E+00
   0.000000E+00   0.000000E+00   1.000000E+02   1.000000E+02   2.000000E+02   2.000000E+02   2.000000E+02   2.000000E+02   2.000000E+02   2.000000E+02   2.000000E+02   2.000000E+02   2.000000E+02   2.000000E+02   2.000000E+02   2.000000E+02   2.000000E+02   2.000000E+02   2.000000E+02   5.000000E+01   5.000000E+01   5.000000E+01   5.000000E+01   0.000000E+00   0.000000E+00   0.000000E+00   0.000000E+00   0.000000E+00   0.000000E+00   0.000000E+00   0.000000E+00   0.000000E+00   0.000000E+00
   0.000000E+00   0.000000E+00   0.000000E+00   0.000000E+00   2.000000E+02   2.000000E+02   2.000000E+02   2.000000E+02   2.000000E+02   2.000000E+02   2.000000E+02   2.000000E+02   0.000000E+00   0.000000E+00   0.000000E+00   0.000000E+00   0.000000E+00   0.000000E+00   0.000000E+00   0.000000E+00   0.000000E+00   0.000000E+00   0.000000E+00   0.000000E+00   0.000000E+00   0.000000E+00   0.000000E+00   0.000000E+00   0.000000E+00   0.000000E+00   0.000000E+00   0.000000E+00   0.000000E+00
CONSTANT    1.000000E-05                           #vka1                          
